
#======================================================================
# CRYSTAL DATA
#----------------------------------------------------------------------
data_VESTA_phase_1

_chemical_name_common                  'UiO-66_hydroxylated'
_cell_length_a                         20.978399
_cell_length_b                         20.978399
_cell_length_c                         20.978399
_cell_angle_alpha                      90.000000
_cell_angle_beta                       90.000000
_cell_angle_gamma                      90.000000
_cell_volume                           9232.451628
_space_group_name_H-M_alt              'P 1'
_space_group_IT_number                 1

loop_
_space_group_symop_operation_xyz
   'x, y, z'

loop_
   _atom_site_label
   _atom_site_occupancy
   _atom_site_fract_x
   _atom_site_fract_y
   _atom_site_fract_z
   _atom_site_adp_type
   _atom_site_U_iso_or_equiv
   _atom_site_type_symbol
   H1         1.0     0.493550     0.280000     0.364450    Uiso  ? H
   C25        1.0     0.493500     0.267450     0.314350    Uiso  ? C
   O1         1.0     0.497400     0.170750     0.405450    Uiso  ? O
   C1         1.0     0.495900     0.152350     0.347650    Uiso  ? C
   C13        1.0     0.493800     0.202850     0.297150    Uiso  ? C
   H1         1.0     0.493550     0.364450     0.280000    Uiso  ? H
   C25        1.0     0.493500     0.314350     0.267450    Uiso  ? C
   C13        1.0     0.493800     0.297150     0.202850    Uiso  ? C
   C1         1.0     0.495900     0.347650     0.152350    Uiso  ? C
   O1         1.0     0.497400     0.405450     0.170750    Uiso  ? O
   H1         1.0     0.493550     0.135550     0.220000    Uiso  ? H
   C25        1.0     0.493500     0.185650     0.232550    Uiso  ? C
   O1         1.0     0.497400     0.094550     0.329250    Uiso  ? O
   H1         1.0     0.493550     0.220000     0.135550    Uiso  ? H
   C25        1.0     0.493500     0.232550     0.185650    Uiso  ? C
   O1         1.0     0.497400     0.329250     0.094550    Uiso  ? O
   Zr1        1.0     0.500000     0.120400     0.500000    Uiso  ? Zr
   H25        1.0     0.593770     0.093770     0.406230    Uiso  ? H
   O25        1.0     0.567270     0.067270     0.432730    Uiso  ? O
   O29        1.0     0.450570     0.049430     0.450570    Uiso  ? O
   H25        1.0     0.406230     0.093770     0.593770    Uiso  ? H
   O25        1.0     0.432730     0.067270     0.567270    Uiso  ? O
   O29        1.0     0.549430     0.049430     0.549430    Uiso  ? O
   H1         1.0     0.364450     0.493550     0.280000    Uiso  ? H
   C25        1.0     0.314350     0.493500     0.267450    Uiso  ? C
   O1         1.0     0.405450     0.497400     0.170750    Uiso  ? O
   C1         1.0     0.347650     0.495900     0.152350    Uiso  ? C
   C13        1.0     0.297150     0.493800     0.202850    Uiso  ? C
   H1         1.0     0.280000     0.493550     0.364450    Uiso  ? H
   C25        1.0     0.267450     0.493500     0.314350    Uiso  ? C
   C13        1.0     0.202850     0.493800     0.297150    Uiso  ? C
   C1         1.0     0.152350     0.495900     0.347650    Uiso  ? C
   O1         1.0     0.170750     0.497400     0.405450    Uiso  ? O
   H1         1.0     0.220000     0.493550     0.135550    Uiso  ? H
   C25        1.0     0.232550     0.493500     0.185650    Uiso  ? C
   O1         1.0     0.329250     0.497400     0.094550    Uiso  ? O
   H1         1.0     0.135550     0.493550     0.220000    Uiso  ? H
   C25        1.0     0.185650     0.493500     0.232550    Uiso  ? C
   O1         1.0     0.094550     0.497400     0.329250    Uiso  ? O
   Zr1        1.0     0.500000     0.500000     0.120400    Uiso  ? Zr
   H1         1.0     0.635550     0.506450     0.280000    Uiso  ? H
   C25        1.0     0.685650     0.506500     0.267450    Uiso  ? C
   O1         1.0     0.594550     0.502600     0.170750    Uiso  ? O
   C1         1.0     0.652350     0.504100     0.152350    Uiso  ? C
   C13        1.0     0.702850     0.506200     0.202850    Uiso  ? C
   H1         1.0     0.720000     0.506450     0.364450    Uiso  ? H
   C25        1.0     0.732550     0.506500     0.314350    Uiso  ? C
   C13        1.0     0.797150     0.506200     0.297150    Uiso  ? C
   C1         1.0     0.847650     0.504100     0.347650    Uiso  ? C
   O1         1.0     0.829250     0.502600     0.405450    Uiso  ? O
   H1         1.0     0.780000     0.506450     0.135550    Uiso  ? H
   C25        1.0     0.767450     0.506500     0.185650    Uiso  ? C
   O1         1.0     0.670750     0.502600     0.094550    Uiso  ? O
   H1         1.0     0.864450     0.506450     0.220000    Uiso  ? H
   C25        1.0     0.814350     0.506500     0.232550    Uiso  ? C
   O1         1.0     0.905450     0.502600     0.329250    Uiso  ? O
   Zr1        1.0     0.500000     0.000000     0.379600    Uiso  ? Zr
   O1         1.0     0.502600     0.170750     0.594550    Uiso  ? O
   O1         1.0     0.502600     0.594550     0.170750    Uiso  ? O
   O1         1.0     0.405450     0.170750     0.497400    Uiso  ? O
   O1         1.0     0.594550     0.170750     0.502600    Uiso  ? O
   O1         1.0     0.405450     0.002600     0.329250    Uiso  ? O
   O1         1.0     0.594550    -0.002600     0.329250    Uiso  ? O
   O1         1.0     0.502600    -0.094550     0.329250    Uiso  ? O
   Zr1        1.0     0.120400     0.500000     0.500000    Uiso  ? Zr
   Zr1        1.0     0.879600     0.500000     0.500000    Uiso  ? Zr
   Zr1        1.0     0.500000     0.379600     0.000000    Uiso  ? Zr
   Zr1        1.0     0.500000     0.000000     0.620400    Uiso  ? Zr
   Zr1        1.0     0.000000     0.500000     0.379600    Uiso  ? Zr
   Zr1        1.0     1.000000     0.500000     0.379600    Uiso  ? Zr
   Zr1        1.0     0.620400     0.500000     0.000000    Uiso  ? Zr
   Zr1        1.0     0.379600     0.500000     0.000000    Uiso  ? Zr
   Zr1        1.0     0.620400     0.000000     0.500000    Uiso  ? Zr
   Zr1        1.0     0.379600     0.000000     0.500000    Uiso  ? Zr
   O25        1.0     0.432730    -0.067270     0.432730    Uiso  ? O
   O25        1.0     0.432730     0.567270     0.067270    Uiso  ? O
   O25        1.0     0.567270     0.432730     0.067270    Uiso  ? O
   O29        1.0     0.549430    -0.049430     0.450570    Uiso  ? O
   O29        1.0     0.450570     0.450570     0.049430    Uiso  ? O
   O29        1.0     0.549430     0.549430     0.049430    Uiso  ? O
   H1         1.0     0.506450     0.720000     0.364450    Uiso  ? H
   C25        1.0     0.506500     0.732550     0.314350    Uiso  ? C
   O1         1.0     0.502600     0.829250     0.405450    Uiso  ? O
   C1         1.0     0.504100     0.847650     0.347650    Uiso  ? C
   C13        1.0     0.506200     0.797150     0.297150    Uiso  ? C
   H1         1.0     0.506450     0.635550     0.280000    Uiso  ? H
   C25        1.0     0.506500     0.685650     0.267450    Uiso  ? C
   C13        1.0     0.506200     0.702850     0.202850    Uiso  ? C
   C1         1.0     0.504100     0.652350     0.152350    Uiso  ? C
   H1         1.0     0.506450     0.864450     0.220000    Uiso  ? H
   C25        1.0     0.506500     0.814350     0.232550    Uiso  ? C
   O1         1.0     0.502600     0.905450     0.329250    Uiso  ? O
   H1         1.0     0.506450     0.780000     0.135550    Uiso  ? H
   C25        1.0     0.506500     0.767450     0.185650    Uiso  ? C
   O1         1.0     0.502600     0.670750     0.094550    Uiso  ? O
   Zr1        1.0     0.500000     0.879600     0.500000    Uiso  ? Zr
   H25        1.0     0.406230     0.906230     0.406230    Uiso  ? H
   O25        1.0     0.432730     0.932730     0.432730    Uiso  ? O
   O29        1.0     0.549430     0.950570     0.450570    Uiso  ? O
   H25        1.0     0.593770     0.906230     0.593770    Uiso  ? H
   O25        1.0     0.567270     0.932730     0.567270    Uiso  ? O
   O29        1.0     0.450570     0.950570     0.549430    Uiso  ? O
   Zr1        1.0     0.500000     1.000000     0.379600    Uiso  ? Zr
   O1         1.0     0.497400     0.829250     0.594550    Uiso  ? O
   O1         1.0     0.594550     0.829250     0.497400    Uiso  ? O
   O1         1.0     0.405450     0.829250     0.502600    Uiso  ? O
   O1         1.0     0.594550     0.997400     0.329250    Uiso  ? O
   O1         1.0     0.405450     1.002600     0.329250    Uiso  ? O
   O1         1.0     0.497400     1.094550     0.329250    Uiso  ? O
   Zr1        1.0     0.500000     0.620400     0.000000    Uiso  ? Zr
   Zr1        1.0     0.500000     1.000000     0.620400    Uiso  ? Zr
   Zr1        1.0     0.379600     1.000000     0.500000    Uiso  ? Zr
   Zr1        1.0     0.620400     1.000000     0.500000    Uiso  ? Zr
   O25        1.0     0.567270     1.067270     0.432730    Uiso  ? O
   O29        1.0     0.450570     1.049430     0.450570    Uiso  ? O
   H1         1.0     0.506450     0.280000     0.635550    Uiso  ? H
   C25        1.0     0.506500     0.267450     0.685650    Uiso  ? C
   C1         1.0     0.504100     0.152350     0.652350    Uiso  ? C
   C13        1.0     0.506200     0.202850     0.702850    Uiso  ? C
   H1         1.0     0.506450     0.364450     0.720000    Uiso  ? H
   C25        1.0     0.506500     0.314350     0.732550    Uiso  ? C
   C13        1.0     0.506200     0.297150     0.797150    Uiso  ? C
   C1         1.0     0.504100     0.347650     0.847650    Uiso  ? C
   O1         1.0     0.502600     0.405450     0.829250    Uiso  ? O
   H1         1.0     0.506450     0.135550     0.780000    Uiso  ? H
   C25        1.0     0.506500     0.185650     0.767450    Uiso  ? C
   O1         1.0     0.502600     0.094550     0.670750    Uiso  ? O
   H1         1.0     0.506450     0.220000     0.864450    Uiso  ? H
   C25        1.0     0.506500     0.232550     0.814350    Uiso  ? C
   O1         1.0     0.502600     0.329250     0.905450    Uiso  ? O
   H1         1.0     0.635550     0.493550     0.720000    Uiso  ? H
   C25        1.0     0.685650     0.493500     0.732550    Uiso  ? C
   O1         1.0     0.594550     0.497400     0.829250    Uiso  ? O
   C1         1.0     0.652350     0.495900     0.847650    Uiso  ? C
   C13        1.0     0.702850     0.493800     0.797150    Uiso  ? C
   H1         1.0     0.720000     0.493550     0.635550    Uiso  ? H
   C25        1.0     0.732550     0.493500     0.685650    Uiso  ? C
   C13        1.0     0.797150     0.493800     0.702850    Uiso  ? C
   C1         1.0     0.847650     0.495900     0.652350    Uiso  ? C
   O1         1.0     0.829250     0.497400     0.594550    Uiso  ? O
   H1         1.0     0.780000     0.493550     0.864450    Uiso  ? H
   C25        1.0     0.767450     0.493500     0.814350    Uiso  ? C
   O1         1.0     0.670750     0.497400     0.905450    Uiso  ? O
   H1         1.0     0.864450     0.493550     0.780000    Uiso  ? H
   C25        1.0     0.814350     0.493500     0.767450    Uiso  ? C
   O1         1.0     0.905450     0.497400     0.670750    Uiso  ? O
   Zr1        1.0     0.500000     0.500000     0.879600    Uiso  ? Zr
   H1         1.0     0.364450     0.506450     0.720000    Uiso  ? H
   C25        1.0     0.314350     0.506500     0.732550    Uiso  ? C
   O1         1.0     0.405450     0.502600     0.829250    Uiso  ? O
   C1         1.0     0.347650     0.504100     0.847650    Uiso  ? C
   C13        1.0     0.297150     0.506200     0.797150    Uiso  ? C
   H1         1.0     0.280000     0.506450     0.635550    Uiso  ? H
   C25        1.0     0.267450     0.506500     0.685650    Uiso  ? C
   C13        1.0     0.202850     0.506200     0.702850    Uiso  ? C
   C1         1.0     0.152350     0.504100     0.652350    Uiso  ? C
   O1         1.0     0.170750     0.502600     0.594550    Uiso  ? O
   H1         1.0     0.220000     0.506450     0.864450    Uiso  ? H
   C25        1.0     0.232550     0.506500     0.814350    Uiso  ? C
   O1         1.0     0.329250     0.502600     0.905450    Uiso  ? O
   H1         1.0     0.135550     0.506450     0.780000    Uiso  ? H
   C25        1.0     0.185650     0.506500     0.767450    Uiso  ? C
   O1         1.0     0.094550     0.502600     0.670750    Uiso  ? O
   O1         1.0     0.497400     0.594550     0.829250    Uiso  ? O
   O1         1.0     0.594550     0.002600     0.670750    Uiso  ? O
   O1         1.0     0.405450    -0.002600     0.670750    Uiso  ? O
   O1         1.0     0.497400    -0.094550     0.670750    Uiso  ? O
   Zr1        1.0     0.500000     0.379600     1.000000    Uiso  ? Zr
   Zr1        1.0     1.000000     0.500000     0.620400    Uiso  ? Zr
   Zr1        1.0     0.000000     0.500000     0.620400    Uiso  ? Zr
   Zr1        1.0     0.379600     0.500000     1.000000    Uiso  ? Zr
   Zr1        1.0     0.620400     0.500000     1.000000    Uiso  ? Zr
   O25        1.0     0.567270    -0.067270     0.567270    Uiso  ? O
   O25        1.0     0.567270     0.567270     0.932730    Uiso  ? O
   O25        1.0     0.432730     0.432730     0.932730    Uiso  ? O
   O29        1.0     0.450570    -0.049430     0.549430    Uiso  ? O
   O29        1.0     0.549430     0.450570     0.950570    Uiso  ? O
   O29        1.0     0.450570     0.549430     0.950570    Uiso  ? O
   H1         1.0     0.493550     0.720000     0.635550    Uiso  ? H
   C25        1.0     0.493500     0.732550     0.685650    Uiso  ? C
   C1         1.0     0.495900     0.847650     0.652350    Uiso  ? C
   C13        1.0     0.493800     0.797150     0.702850    Uiso  ? C
   H1         1.0     0.493550     0.635550     0.720000    Uiso  ? H
   C25        1.0     0.493500     0.685650     0.732550    Uiso  ? C
   C13        1.0     0.493800     0.702850     0.797150    Uiso  ? C
   C1         1.0     0.495900     0.652350     0.847650    Uiso  ? C
   H1         1.0     0.493550     0.864450     0.780000    Uiso  ? H
   C25        1.0     0.493500     0.814350     0.767450    Uiso  ? C
   O1         1.0     0.497400     0.905450     0.670750    Uiso  ? O
   H1         1.0     0.493550     0.780000     0.864450    Uiso  ? H
   C25        1.0     0.493500     0.767450     0.814350    Uiso  ? C
   O1         1.0     0.497400     0.670750     0.905450    Uiso  ? O
   O1         1.0     0.405450     0.997400     0.670750    Uiso  ? O
   O1         1.0     0.594550     1.002600     0.670750    Uiso  ? O
   O1         1.0     0.502600     1.094550     0.670750    Uiso  ? O
   Zr1        1.0     0.500000     0.620400     1.000000    Uiso  ? Zr
   O25        1.0     0.432730     1.067270     0.567270    Uiso  ? O
   O29        1.0     0.549430     1.049430     0.549430    Uiso  ? O
   H25        1.0     0.406230     0.593770     0.093770    Uiso  ? H
   H25        1.0     0.593770     0.406230     0.093770    Uiso  ? H
   H1         1.0     0.280000     0.364450     0.493550    Uiso  ? H
   C25        1.0     0.267450     0.314350     0.493500    Uiso  ? C
   O1         1.0     0.170750     0.405450     0.497400    Uiso  ? O
   C1         1.0     0.152350     0.347650     0.495900    Uiso  ? C
   C13        1.0     0.202850     0.297150     0.493800    Uiso  ? C
   H1         1.0     0.364450     0.280000     0.493550    Uiso  ? H
   C25        1.0     0.314350     0.267450     0.493500    Uiso  ? C
   C13        1.0     0.297150     0.202850     0.493800    Uiso  ? C
   C1         1.0     0.347650     0.152350     0.495900    Uiso  ? C
   H1         1.0     0.135550     0.220000     0.493550    Uiso  ? H
   C25        1.0     0.185650     0.232550     0.493500    Uiso  ? C
   O1         1.0     0.094550     0.329250     0.497400    Uiso  ? O
   H1         1.0     0.220000     0.135550     0.493550    Uiso  ? H
   C25        1.0     0.232550     0.185650     0.493500    Uiso  ? C
   O1         1.0     0.329250     0.094550     0.497400    Uiso  ? O
   H1         1.0     0.280000     0.635550     0.506450    Uiso  ? H
   C25        1.0     0.267450     0.685650     0.506500    Uiso  ? C
   O1         1.0     0.170750     0.594550     0.502600    Uiso  ? O
   C1         1.0     0.152350     0.652350     0.504100    Uiso  ? C
   C13        1.0     0.202850     0.702850     0.506200    Uiso  ? C
   H1         1.0     0.364450     0.720000     0.506450    Uiso  ? H
   C25        1.0     0.314350     0.732550     0.506500    Uiso  ? C
   C13        1.0     0.297150     0.797150     0.506200    Uiso  ? C
   C1         1.0     0.347650     0.847650     0.504100    Uiso  ? C
   H1         1.0     0.135550     0.780000     0.506450    Uiso  ? H
   C25        1.0     0.185650     0.767450     0.506500    Uiso  ? C
   O1         1.0     0.094550     0.670750     0.502600    Uiso  ? O
   H1         1.0     0.220000     0.864450     0.506450    Uiso  ? H
   C25        1.0     0.232550     0.814350     0.506500    Uiso  ? C
   O1         1.0     0.329250     0.905450     0.502600    Uiso  ? O
   O1         1.0     0.329250     0.405450     0.002600    Uiso  ? O
   O1         1.0     0.329250     0.594550    -0.002600    Uiso  ? O
   O1         1.0     0.329250     0.502600    -0.094550    Uiso  ? O
   Zr1        1.0     0.000000     0.620400     0.500000    Uiso  ? Zr
   Zr1        1.0     0.000000     0.379600     0.500000    Uiso  ? Zr
   O25        1.0     0.432730     0.432730    -0.067270    Uiso  ? O
   O25        1.0     0.067270     0.432730     0.567270    Uiso  ? O
   O25        1.0     0.067270     0.567270     0.432730    Uiso  ? O
   O29        1.0     0.450570     0.549430    -0.049430    Uiso  ? O
   O29        1.0     0.049430     0.450570     0.450570    Uiso  ? O
   O29        1.0     0.049430     0.549430     0.549430    Uiso  ? O
   H25        1.0     0.406230     0.406230     0.906230    Uiso  ? H
   H25        1.0     0.593770     0.593770     0.906230    Uiso  ? H
   O1         1.0     0.329250     0.594550     0.997400    Uiso  ? O
   O1         1.0     0.329250     0.405450     1.002600    Uiso  ? O
   O1         1.0     0.329250     0.497400     1.094550    Uiso  ? O
   O25        1.0     0.432730     0.567270     1.067270    Uiso  ? O
   O29        1.0     0.450570     0.450570     1.049430    Uiso  ? O
   H1         1.0     0.720000     0.635550     0.493550    Uiso  ? H
   C25        1.0     0.732550     0.685650     0.493500    Uiso  ? C
   O1         1.0     0.829250     0.594550     0.497400    Uiso  ? O
   C1         1.0     0.847650     0.652350     0.495900    Uiso  ? C
   C13        1.0     0.797150     0.702850     0.493800    Uiso  ? C
   H1         1.0     0.635550     0.720000     0.493550    Uiso  ? H
   C25        1.0     0.685650     0.732550     0.493500    Uiso  ? C
   C13        1.0     0.702850     0.797150     0.493800    Uiso  ? C
   C1         1.0     0.652350     0.847650     0.495900    Uiso  ? C
   H1         1.0     0.864450     0.780000     0.493550    Uiso  ? H
   C25        1.0     0.814350     0.767450     0.493500    Uiso  ? C
   O1         1.0     0.905450     0.670750     0.497400    Uiso  ? O
   H1         1.0     0.780000     0.864450     0.493550    Uiso  ? H
   C25        1.0     0.767450     0.814350     0.493500    Uiso  ? C
   O1         1.0     0.670750     0.905450     0.497400    Uiso  ? O
   H1         1.0     0.720000     0.364450     0.506450    Uiso  ? H
   C25        1.0     0.732550     0.314350     0.506500    Uiso  ? C
   O1         1.0     0.829250     0.405450     0.502600    Uiso  ? O
   C1         1.0     0.847650     0.347650     0.504100    Uiso  ? C
   C13        1.0     0.797150     0.297150     0.506200    Uiso  ? C
   H1         1.0     0.635550     0.280000     0.506450    Uiso  ? H
   C25        1.0     0.685650     0.267450     0.506500    Uiso  ? C
   C13        1.0     0.702850     0.202850     0.506200    Uiso  ? C
   C1         1.0     0.652350     0.152350     0.504100    Uiso  ? C
   H1         1.0     0.864450     0.220000     0.506450    Uiso  ? H
   C25        1.0     0.814350     0.232550     0.506500    Uiso  ? C
   O1         1.0     0.905450     0.329250     0.502600    Uiso  ? O
   H1         1.0     0.780000     0.135550     0.506450    Uiso  ? H
   C25        1.0     0.767450     0.185650     0.506500    Uiso  ? C
   O1         1.0     0.670750     0.094550     0.502600    Uiso  ? O
   O1         1.0     0.670750     0.594550     0.002600    Uiso  ? O
   O1         1.0     0.670750     0.405450    -0.002600    Uiso  ? O
   O1         1.0     0.670750     0.497400    -0.094550    Uiso  ? O
   Zr1        1.0     1.000000     0.379600     0.500000    Uiso  ? Zr
   Zr1        1.0     1.000000     0.620400     0.500000    Uiso  ? Zr
   O25        1.0     0.567270     0.567270    -0.067270    Uiso  ? O
   O25        1.0     0.932730     0.567270     0.567270    Uiso  ? O
   O25        1.0     0.932730     0.432730     0.432730    Uiso  ? O
   O29        1.0     0.549430     0.450570    -0.049430    Uiso  ? O
   O29        1.0     0.950570     0.549430     0.450570    Uiso  ? O
   O29        1.0     0.950570     0.450570     0.549430    Uiso  ? O
   O1         1.0     0.670750     0.405450     0.997400    Uiso  ? O
   O1         1.0     0.670750     0.594550     1.002600    Uiso  ? O
   O1         1.0     0.670750     0.502600     1.094550    Uiso  ? O
   O25        1.0     0.567270     0.432730     1.067270    Uiso  ? O
   O29        1.0     0.549430     0.549430     1.049430    Uiso  ? O
   H25        1.0     0.093770     0.406230     0.593770    Uiso  ? H
   H25        1.0     0.093770     0.593770     0.406230    Uiso  ? H
   O1         1.0     0.002600     0.329250     0.405450    Uiso  ? O
   O1         1.0    -0.002600     0.329250     0.594550    Uiso  ? O
   O1         1.0    -0.094550     0.329250     0.502600    Uiso  ? O
   O25        1.0    -0.067270     0.432730     0.432730    Uiso  ? O
   O29        1.0    -0.049430     0.450570     0.549430    Uiso  ? O
   H25        1.0     0.906230     0.406230     0.406230    Uiso  ? H
   H25        1.0     0.906230     0.593770     0.593770    Uiso  ? H
   O1         1.0     0.997400     0.329250     0.594550    Uiso  ? O
   O1         1.0     1.002600     0.329250     0.405450    Uiso  ? O
   O1         1.0     1.094550     0.329250     0.497400    Uiso  ? O
   O25        1.0     1.067270     0.432730     0.567270    Uiso  ? O
   O29        1.0     1.049430     0.450570     0.450570    Uiso  ? O
   O1         1.0     0.002600     0.670750     0.594550    Uiso  ? O
   O1         1.0    -0.002600     0.670750     0.405450    Uiso  ? O
   O1         1.0    -0.094550     0.670750     0.497400    Uiso  ? O
   O25        1.0    -0.067270     0.567270     0.567270    Uiso  ? O
   O29        1.0    -0.049430     0.549430     0.450570    Uiso  ? O
   O1         1.0     0.997400     0.670750     0.405450    Uiso  ? O
   O1         1.0     1.002600     0.670750     0.594550    Uiso  ? O
   O1         1.0     1.094550     0.670750     0.502600    Uiso  ? O
   O25        1.0     1.067270     0.567270     0.432730    Uiso  ? O
   O29        1.0     1.049430     0.549430     0.549430    Uiso  ? O
   O1         1.0     0.002600     0.405450     0.329250    Uiso  ? O
   O1         1.0    -0.002600     0.594550     0.329250    Uiso  ? O
   O1         1.0    -0.094550     0.502600     0.329250    Uiso  ? O
   O1         1.0     0.997400     0.594550     0.329250    Uiso  ? O
   O1         1.0     1.002600     0.405450     0.329250    Uiso  ? O
   O1         1.0     1.094550     0.497400     0.329250    Uiso  ? O
   O1         1.0     0.002600     0.594550     0.670750    Uiso  ? O
   O1         1.0    -0.002600     0.405450     0.670750    Uiso  ? O
   O1         1.0    -0.094550     0.497400     0.670750    Uiso  ? O
   O1         1.0     0.997400     0.405450     0.670750    Uiso  ? O
   O1         1.0     1.002600     0.594550     0.670750    Uiso  ? O
   O1         1.0     1.094550     0.502600     0.670750    Uiso  ? O
   O1         1.0     0.405450     0.329250     0.002600    Uiso  ? O
   O1         1.0     0.594550     0.329250    -0.002600    Uiso  ? O
   O1         1.0     0.502600     0.329250    -0.094550    Uiso  ? O
   O1         1.0     0.594550     0.329250     0.997400    Uiso  ? O
   O1         1.0     0.405450     0.329250     1.002600    Uiso  ? O
   O1         1.0     0.497400     0.329250     1.094550    Uiso  ? O
   O1         1.0     0.594550     0.670750     0.002600    Uiso  ? O
   O1         1.0     0.405450     0.670750    -0.002600    Uiso  ? O
   O1         1.0     0.497400     0.670750    -0.094550    Uiso  ? O
   O1         1.0     0.405450     0.670750     0.997400    Uiso  ? O
   O1         1.0     0.594550     0.670750     1.002600    Uiso  ? O
   O1         1.0     0.502600     0.670750     1.094550    Uiso  ? O
   O1         1.0     0.329250     0.002600     0.405450    Uiso  ? O
   O1         1.0     0.329250    -0.002600     0.594550    Uiso  ? O
   O1         1.0     0.329250    -0.094550     0.502600    Uiso  ? O
   O1         1.0     0.329250     0.997400     0.594550    Uiso  ? O
   O1         1.0     0.329250     1.002600     0.405450    Uiso  ? O
   O1         1.0     0.329250     1.094550     0.497400    Uiso  ? O
   O1         1.0     0.670750     0.002600     0.594550    Uiso  ? O
   O1         1.0     0.670750    -0.002600     0.405450    Uiso  ? O
   O1         1.0     0.670750    -0.094550     0.497400    Uiso  ? O
   O1         1.0     0.670750     0.997400     0.405450    Uiso  ? O
   O1         1.0     0.670750     1.002600     0.594550    Uiso  ? O
   O1         1.0     0.670750     1.094550     0.502600    Uiso  ? O
   H25        1.0     0.406230     0.593770     1.093770    Uiso  ? H
   H1         1.0     0.364450     0.993550     0.780000    Uiso  ? H
   C25        1.0     0.314350     0.993500     0.767450    Uiso  ? C
   C1         1.0     0.347650     0.995900     0.652350    Uiso  ? C
   C13        1.0     0.297150     0.993800     0.702850    Uiso  ? C
   H1         1.0     0.280000     0.993550     0.864450    Uiso  ? H
   C25        1.0     0.267450     0.993500     0.814350    Uiso  ? C
   C13        1.0     0.202850     0.993800     0.797150    Uiso  ? C
   C1         1.0     0.152350     0.995900     0.847650    Uiso  ? C
   O1         1.0     0.170750     0.997400     0.905450    Uiso  ? O
   H1         1.0     0.220000     0.993550     0.635550    Uiso  ? H
   C25        1.0     0.232550     0.993500     0.685650    Uiso  ? C
   H1         1.0     0.135550     0.993550     0.720000    Uiso  ? H
   C25        1.0     0.185650     0.993500     0.732550    Uiso  ? C
   O1         1.0     0.094550     0.997400     0.829250    Uiso  ? O
   H1         1.0     0.635550     1.006450     0.780000    Uiso  ? H
   C25        1.0     0.685650     1.006500     0.767450    Uiso  ? C
   C1         1.0     0.652350     1.004100     0.652350    Uiso  ? C
   C13        1.0     0.702850     1.006200     0.702850    Uiso  ? C
   H1         1.0     0.720000     1.006450     0.864450    Uiso  ? H
   C25        1.0     0.732550     1.006500     0.814350    Uiso  ? C
   C13        1.0     0.797150     1.006200     0.797150    Uiso  ? C
   C1         1.0     0.847650     1.004100     0.847650    Uiso  ? C
   O1         1.0     0.829250     1.002600     0.905450    Uiso  ? O
   H1         1.0     0.780000     1.006450     0.635550    Uiso  ? H
   C25        1.0     0.767450     1.006500     0.685650    Uiso  ? C
   H1         1.0     0.864450     1.006450     0.720000    Uiso  ? H
   C25        1.0     0.814350     1.006500     0.732550    Uiso  ? C
   O1         1.0     0.905450     1.002600     0.829250    Uiso  ? O
   Zr1        1.0     0.120400     1.000000     1.000000    Uiso  ? Zr
   Zr1        1.0     0.879600     1.000000     1.000000    Uiso  ? Zr
   Zr1        1.0     0.500000     0.500000     1.120400    Uiso  ? Zr
   Zr1        1.0     0.000000     1.000000     0.879600    Uiso  ? Zr
   Zr1        1.0     1.000000     1.000000     0.879600    Uiso  ? Zr
   H25        1.0     0.593770     0.406230     1.093770    Uiso  ? H
   H1         1.0     0.635550     0.006450     0.780000    Uiso  ? H
   C25        1.0     0.685650     0.006500     0.767450    Uiso  ? C
   C1         1.0     0.652350     0.004100     0.652350    Uiso  ? C
   C13        1.0     0.702850     0.006200     0.702850    Uiso  ? C
   H1         1.0     0.720000     0.006450     0.864450    Uiso  ? H
   C25        1.0     0.732550     0.006500     0.814350    Uiso  ? C
   C13        1.0     0.797150     0.006200     0.797150    Uiso  ? C
   C1         1.0     0.847650     0.004100     0.847650    Uiso  ? C
   O1         1.0     0.829250     0.002600     0.905450    Uiso  ? O
   H1         1.0     0.780000     0.006450     0.635550    Uiso  ? H
   C25        1.0     0.767450     0.006500     0.685650    Uiso  ? C
   H1         1.0     0.864450     0.006450     0.720000    Uiso  ? H
   C25        1.0     0.814350     0.006500     0.732550    Uiso  ? C
   O1         1.0     0.905450     0.002600     0.829250    Uiso  ? O
   H1         1.0     0.364450    -0.006450     0.780000    Uiso  ? H
   C25        1.0     0.314350    -0.006500     0.767450    Uiso  ? C
   C1         1.0     0.347650    -0.004100     0.652350    Uiso  ? C
   C13        1.0     0.297150    -0.006200     0.702850    Uiso  ? C
   H1         1.0     0.280000    -0.006450     0.864450    Uiso  ? H
   C25        1.0     0.267450    -0.006500     0.814350    Uiso  ? C
   C13        1.0     0.202850    -0.006200     0.797150    Uiso  ? C
   C1         1.0     0.152350    -0.004100     0.847650    Uiso  ? C
   O1         1.0     0.170750    -0.002600     0.905450    Uiso  ? O
   H1         1.0     0.220000    -0.006450     0.635550    Uiso  ? H
   C25        1.0     0.232550    -0.006500     0.685650    Uiso  ? C
   H1         1.0     0.135550    -0.006450     0.720000    Uiso  ? H
   C25        1.0     0.185650    -0.006500     0.732550    Uiso  ? C
   O1         1.0     0.094550    -0.002600     0.829250    Uiso  ? O
   Zr1        1.0     0.879600     0.000000     1.000000    Uiso  ? Zr
   Zr1        1.0     0.120400     0.000000     1.000000    Uiso  ? Zr
   Zr1        1.0     1.000000     0.000000     0.879600    Uiso  ? Zr
   Zr1        1.0     0.000000     0.000000     0.879600    Uiso  ? Zr
   H25        1.0     0.593770     0.593770    -0.093770    Uiso  ? H
   H1         1.0     0.635550     0.993550     0.220000    Uiso  ? H
   C25        1.0     0.685650     0.993500     0.232550    Uiso  ? C
   C1         1.0     0.652350     0.995900     0.347650    Uiso  ? C
   C13        1.0     0.702850     0.993800     0.297150    Uiso  ? C
   H1         1.0     0.720000     0.993550     0.135550    Uiso  ? H
   C25        1.0     0.732550     0.993500     0.185650    Uiso  ? C
   C13        1.0     0.797150     0.993800     0.202850    Uiso  ? C
   C1         1.0     0.847650     0.995900     0.152350    Uiso  ? C
   O1         1.0     0.829250     0.997400     0.094550    Uiso  ? O
   H1         1.0     0.780000     0.993550     0.364450    Uiso  ? H
   C25        1.0     0.767450     0.993500     0.314350    Uiso  ? C
   H1         1.0     0.864450     0.993550     0.280000    Uiso  ? H
   C25        1.0     0.814350     0.993500     0.267450    Uiso  ? C
   O1         1.0     0.905450     0.997400     0.170750    Uiso  ? O
   H1         1.0     0.364450     1.006450     0.220000    Uiso  ? H
   C25        1.0     0.314350     1.006500     0.232550    Uiso  ? C
   C1         1.0     0.347650     1.004100     0.347650    Uiso  ? C
   C13        1.0     0.297150     1.006200     0.297150    Uiso  ? C
   H1         1.0     0.280000     1.006450     0.135550    Uiso  ? H
   C25        1.0     0.267450     1.006500     0.185650    Uiso  ? C
   C13        1.0     0.202850     1.006200     0.202850    Uiso  ? C
   C1         1.0     0.152350     1.004100     0.152350    Uiso  ? C
   O1         1.0     0.170750     1.002600     0.094550    Uiso  ? O
   H1         1.0     0.220000     1.006450     0.364450    Uiso  ? H
   C25        1.0     0.232550     1.006500     0.314350    Uiso  ? C
   H1         1.0     0.135550     1.006450     0.280000    Uiso  ? H
   C25        1.0     0.185650     1.006500     0.267450    Uiso  ? C
   O1         1.0     0.094550     1.002600     0.170750    Uiso  ? O
   Zr1        1.0     0.879600     1.000000     0.000000    Uiso  ? Zr
   Zr1        1.0     0.120400     1.000000     0.000000    Uiso  ? Zr
   Zr1        1.0     0.500000     0.500000    -0.120400    Uiso  ? Zr
   Zr1        1.0     1.000000     1.000000     0.120400    Uiso  ? Zr
   Zr1        1.0     0.000000     1.000000     0.120400    Uiso  ? Zr
   H25        1.0     0.406230     0.406230    -0.093770    Uiso  ? H
   H1         1.0     0.364450     0.006450     0.220000    Uiso  ? H
   C25        1.0     0.314350     0.006500     0.232550    Uiso  ? C
   C1         1.0     0.347650     0.004100     0.347650    Uiso  ? C
   C13        1.0     0.297150     0.006200     0.297150    Uiso  ? C
   H1         1.0     0.280000     0.006450     0.135550    Uiso  ? H
   C25        1.0     0.267450     0.006500     0.185650    Uiso  ? C
   C13        1.0     0.202850     0.006200     0.202850    Uiso  ? C
   C1         1.0     0.152350     0.004100     0.152350    Uiso  ? C
   O1         1.0     0.170750     0.002600     0.094550    Uiso  ? O
   H1         1.0     0.220000     0.006450     0.364450    Uiso  ? H
   C25        1.0     0.232550     0.006500     0.314350    Uiso  ? C
   H1         1.0     0.135550     0.006450     0.280000    Uiso  ? H
   C25        1.0     0.185650     0.006500     0.267450    Uiso  ? C
   O1         1.0     0.094550     0.002600     0.170750    Uiso  ? O
   H1         1.0     0.635550    -0.006450     0.220000    Uiso  ? H
   C25        1.0     0.685650    -0.006500     0.232550    Uiso  ? C
   C1         1.0     0.652350    -0.004100     0.347650    Uiso  ? C
   C13        1.0     0.702850    -0.006200     0.297150    Uiso  ? C
   H1         1.0     0.720000    -0.006450     0.135550    Uiso  ? H
   C25        1.0     0.732550    -0.006500     0.185650    Uiso  ? C
   C13        1.0     0.797150    -0.006200     0.202850    Uiso  ? C
   C1         1.0     0.847650    -0.004100     0.152350    Uiso  ? C
   O1         1.0     0.829250    -0.002600     0.094550    Uiso  ? O
   H1         1.0     0.780000    -0.006450     0.364450    Uiso  ? H
   C25        1.0     0.767450    -0.006500     0.314350    Uiso  ? C
   H1         1.0     0.864450    -0.006450     0.280000    Uiso  ? H
   C25        1.0     0.814350    -0.006500     0.267450    Uiso  ? C
   O1         1.0     0.905450    -0.002600     0.170750    Uiso  ? O
   Zr1        1.0     0.120400     0.000000     0.000000    Uiso  ? Zr
   Zr1        1.0     0.879600     0.000000     0.000000    Uiso  ? Zr
   Zr1        1.0     0.000000     0.000000     0.120400    Uiso  ? Zr
   Zr1        1.0     1.000000     0.000000     0.120400    Uiso  ? Zr
   H25        1.0     0.406230     1.093770     0.593770    Uiso  ? H
   H1         1.0     0.280000     0.864450     0.993550    Uiso  ? H
   C25        1.0     0.267450     0.814350     0.993500    Uiso  ? C
   O1         1.0     0.170750     0.905450     0.997400    Uiso  ? O
   C1         1.0     0.152350     0.847650     0.995900    Uiso  ? C
   C13        1.0     0.202850     0.797150     0.993800    Uiso  ? C
   H1         1.0     0.364450     0.780000     0.993550    Uiso  ? H
   C25        1.0     0.314350     0.767450     0.993500    Uiso  ? C
   C13        1.0     0.297150     0.702850     0.993800    Uiso  ? C
   C1         1.0     0.347650     0.652350     0.995900    Uiso  ? C
   H1         1.0     0.135550     0.720000     0.993550    Uiso  ? H
   C25        1.0     0.185650     0.732550     0.993500    Uiso  ? C
   O1         1.0     0.094550     0.829250     0.997400    Uiso  ? O
   H1         1.0     0.220000     0.635550     0.993550    Uiso  ? H
   C25        1.0     0.232550     0.685650     0.993500    Uiso  ? C
   H1         1.0     0.280000     1.135550     1.006450    Uiso  ? H
   C25        1.0     0.267450     1.185650     1.006500    Uiso  ? C
   O1         1.0     0.170750     1.094550     1.002600    Uiso  ? O
   C1         1.0     0.152350     1.152350     1.004100    Uiso  ? C
   C13        1.0     0.202850     1.202850     1.006200    Uiso  ? C
   H1         1.0     0.364450     1.220000     1.006450    Uiso  ? H
   C25        1.0     0.314350     1.232550     1.006500    Uiso  ? C
   C13        1.0     0.297150     1.297150     1.006200    Uiso  ? C
   C1         1.0     0.347650     1.347650     1.004100    Uiso  ? C
   O1         1.0     0.405450     1.329250     1.002600    Uiso  ? O
   H1         1.0     0.135550     1.280000     1.006450    Uiso  ? H
   C25        1.0     0.185650     1.267450     1.006500    Uiso  ? C
   O1         1.0     0.094550     1.170750     1.002600    Uiso  ? O
   H1         1.0     0.220000     1.364450     1.006450    Uiso  ? H
   C25        1.0     0.232550     1.314350     1.006500    Uiso  ? C
   O1         1.0     0.329250     1.405450     1.002600    Uiso  ? O
   O1         1.0     0.170750     1.002600     1.094550    Uiso  ? O
   Zr1        1.0     0.500000     1.379600     1.000000    Uiso  ? Zr
   Zr1        1.0     0.379600     1.500000     1.000000    Uiso  ? Zr
   Zr1        1.0     0.000000     1.120400     1.000000    Uiso  ? Zr
   Zr1        1.0     0.000000     0.879600     1.000000    Uiso  ? Zr
   Zr1        1.0     0.500000     1.120400     0.500000    Uiso  ? Zr
   O25        1.0     0.067270     0.932730     1.067270    Uiso  ? O
   O25        1.0     0.067270     1.067270     0.932730    Uiso  ? O
   O29        1.0     0.049430     0.950570     0.950570    Uiso  ? O
   O29        1.0     0.049430     1.049430     1.049430    Uiso  ? O
   H25        1.0     0.406230    -0.093770     0.406230    Uiso  ? H
   H1         1.0     0.280000     0.135550     0.006450    Uiso  ? H
   C25        1.0     0.267450     0.185650     0.006500    Uiso  ? C
   O1         1.0     0.170750     0.094550     0.002600    Uiso  ? O
   C1         1.0     0.152350     0.152350     0.004100    Uiso  ? C
   C13        1.0     0.202850     0.202850     0.006200    Uiso  ? C
   H1         1.0     0.364450     0.220000     0.006450    Uiso  ? H
   C25        1.0     0.314350     0.232550     0.006500    Uiso  ? C
   C13        1.0     0.297150     0.297150     0.006200    Uiso  ? C
   C1         1.0     0.347650     0.347650     0.004100    Uiso  ? C
   H1         1.0     0.135550     0.280000     0.006450    Uiso  ? H
   C25        1.0     0.185650     0.267450     0.006500    Uiso  ? C
   O1         1.0     0.094550     0.170750     0.002600    Uiso  ? O
   H1         1.0     0.220000     0.364450     0.006450    Uiso  ? H
   C25        1.0     0.232550     0.314350     0.006500    Uiso  ? C
   H1         1.0     0.280000    -0.135550    -0.006450    Uiso  ? H
   C25        1.0     0.267450    -0.185650    -0.006500    Uiso  ? C
   O1         1.0     0.170750    -0.094550    -0.002600    Uiso  ? O
   C1         1.0     0.152350    -0.152350    -0.004100    Uiso  ? C
   C13        1.0     0.202850    -0.202850    -0.006200    Uiso  ? C
   H1         1.0     0.364450    -0.220000    -0.006450    Uiso  ? H
   C25        1.0     0.314350    -0.232550    -0.006500    Uiso  ? C
   C13        1.0     0.297150    -0.297150    -0.006200    Uiso  ? C
   C1         1.0     0.347650    -0.347650    -0.004100    Uiso  ? C
   O1         1.0     0.405450    -0.329250    -0.002600    Uiso  ? O
   H1         1.0     0.135550    -0.280000    -0.006450    Uiso  ? H
   C25        1.0     0.185650    -0.267450    -0.006500    Uiso  ? C
   O1         1.0     0.094550    -0.170750    -0.002600    Uiso  ? O
   H1         1.0     0.220000    -0.364450    -0.006450    Uiso  ? H
   C25        1.0     0.232550    -0.314350    -0.006500    Uiso  ? C
   O1         1.0     0.329250    -0.405450    -0.002600    Uiso  ? O
   O1         1.0     0.170750    -0.002600    -0.094550    Uiso  ? O
   Zr1        1.0     0.500000    -0.379600     0.000000    Uiso  ? Zr
   Zr1        1.0     0.379600    -0.500000     0.000000    Uiso  ? Zr
   Zr1        1.0     0.000000    -0.120400     0.000000    Uiso  ? Zr
   Zr1        1.0     0.000000     0.120400     0.000000    Uiso  ? Zr
   Zr1        1.0     0.500000    -0.120400     0.500000    Uiso  ? Zr
   O25        1.0     0.067270     0.067270    -0.067270    Uiso  ? O
   O25        1.0     0.067270    -0.067270     0.067270    Uiso  ? O
   O29        1.0     0.049430     0.049430     0.049430    Uiso  ? O
   O29        1.0     0.049430    -0.049430    -0.049430    Uiso  ? O
   H25        1.0     0.593770    -0.093770     0.593770    Uiso  ? H
   H1         1.0     0.720000     0.135550     0.993550    Uiso  ? H
   C25        1.0     0.732550     0.185650     0.993500    Uiso  ? C
   O1         1.0     0.829250     0.094550     0.997400    Uiso  ? O
   C1         1.0     0.847650     0.152350     0.995900    Uiso  ? C
   C13        1.0     0.797150     0.202850     0.993800    Uiso  ? C
   H1         1.0     0.635550     0.220000     0.993550    Uiso  ? H
   C25        1.0     0.685650     0.232550     0.993500    Uiso  ? C
   C13        1.0     0.702850     0.297150     0.993800    Uiso  ? C
   C1         1.0     0.652350     0.347650     0.995900    Uiso  ? C
   H1         1.0     0.864450     0.280000     0.993550    Uiso  ? H
   C25        1.0     0.814350     0.267450     0.993500    Uiso  ? C
   O1         1.0     0.905450     0.170750     0.997400    Uiso  ? O
   H1         1.0     0.780000     0.364450     0.993550    Uiso  ? H
   C25        1.0     0.767450     0.314350     0.993500    Uiso  ? C
   H1         1.0     0.720000    -0.135550     1.006450    Uiso  ? H
   C25        1.0     0.732550    -0.185650     1.006500    Uiso  ? C
   O1         1.0     0.829250    -0.094550     1.002600    Uiso  ? O
   C1         1.0     0.847650    -0.152350     1.004100    Uiso  ? C
   C13        1.0     0.797150    -0.202850     1.006200    Uiso  ? C
   H1         1.0     0.635550    -0.220000     1.006450    Uiso  ? H
   C25        1.0     0.685650    -0.232550     1.006500    Uiso  ? C
   C13        1.0     0.702850    -0.297150     1.006200    Uiso  ? C
   C1         1.0     0.652350    -0.347650     1.004100    Uiso  ? C
   O1         1.0     0.594550    -0.329250     1.002600    Uiso  ? O
   H1         1.0     0.864450    -0.280000     1.006450    Uiso  ? H
   C25        1.0     0.814350    -0.267450     1.006500    Uiso  ? C
   O1         1.0     0.905450    -0.170750     1.002600    Uiso  ? O
   H1         1.0     0.780000    -0.364450     1.006450    Uiso  ? H
   C25        1.0     0.767450    -0.314350     1.006500    Uiso  ? C
   O1         1.0     0.670750    -0.405450     1.002600    Uiso  ? O
   O1         1.0     0.829250    -0.002600     1.094550    Uiso  ? O
   Zr1        1.0     0.500000    -0.379600     1.000000    Uiso  ? Zr
   Zr1        1.0     0.620400    -0.500000     1.000000    Uiso  ? Zr
   Zr1        1.0     1.000000    -0.120400     1.000000    Uiso  ? Zr
   Zr1        1.0     1.000000     0.120400     1.000000    Uiso  ? Zr
   O25        1.0     0.932730     0.067270     1.067270    Uiso  ? O
   O25        1.0     0.932730    -0.067270     0.932730    Uiso  ? O
   O29        1.0     0.950570     0.049430     0.950570    Uiso  ? O
   O29        1.0     0.950570    -0.049430     1.049430    Uiso  ? O
   H25        1.0     0.593770     1.093770     0.406230    Uiso  ? H
   H1         1.0     0.720000     0.864450     0.006450    Uiso  ? H
   C25        1.0     0.732550     0.814350     0.006500    Uiso  ? C
   O1         1.0     0.829250     0.905450     0.002600    Uiso  ? O
   C1         1.0     0.847650     0.847650     0.004100    Uiso  ? C
   C13        1.0     0.797150     0.797150     0.006200    Uiso  ? C
   H1         1.0     0.635550     0.780000     0.006450    Uiso  ? H
   C25        1.0     0.685650     0.767450     0.006500    Uiso  ? C
   C13        1.0     0.702850     0.702850     0.006200    Uiso  ? C
   C1         1.0     0.652350     0.652350     0.004100    Uiso  ? C
   H1         1.0     0.864450     0.720000     0.006450    Uiso  ? H
   C25        1.0     0.814350     0.732550     0.006500    Uiso  ? C
   O1         1.0     0.905450     0.829250     0.002600    Uiso  ? O
   H1         1.0     0.780000     0.635550     0.006450    Uiso  ? H
   C25        1.0     0.767450     0.685650     0.006500    Uiso  ? C
   H1         1.0     0.720000     1.135550    -0.006450    Uiso  ? H
   C25        1.0     0.732550     1.185650    -0.006500    Uiso  ? C
   O1         1.0     0.829250     1.094550    -0.002600    Uiso  ? O
   C1         1.0     0.847650     1.152350    -0.004100    Uiso  ? C
   C13        1.0     0.797150     1.202850    -0.006200    Uiso  ? C
   H1         1.0     0.635550     1.220000    -0.006450    Uiso  ? H
   C25        1.0     0.685650     1.232550    -0.006500    Uiso  ? C
   C13        1.0     0.702850     1.297150    -0.006200    Uiso  ? C
   C1         1.0     0.652350     1.347650    -0.004100    Uiso  ? C
   O1         1.0     0.594550     1.329250    -0.002600    Uiso  ? O
   H1         1.0     0.864450     1.280000    -0.006450    Uiso  ? H
   C25        1.0     0.814350     1.267450    -0.006500    Uiso  ? C
   O1         1.0     0.905450     1.170750    -0.002600    Uiso  ? O
   H1         1.0     0.780000     1.364450    -0.006450    Uiso  ? H
   C25        1.0     0.767450     1.314350    -0.006500    Uiso  ? C
   O1         1.0     0.670750     1.405450    -0.002600    Uiso  ? O
   O1         1.0     0.829250     1.002600    -0.094550    Uiso  ? O
   Zr1        1.0     0.500000     1.379600     0.000000    Uiso  ? Zr
   Zr1        1.0     0.620400     1.500000     0.000000    Uiso  ? Zr
   Zr1        1.0     1.000000     1.120400     0.000000    Uiso  ? Zr
   Zr1        1.0     1.000000     0.879600     0.000000    Uiso  ? Zr
   O25        1.0     0.932730     0.932730    -0.067270    Uiso  ? O
   O25        1.0     0.932730     1.067270     0.067270    Uiso  ? O
   O29        1.0     0.950570     0.950570     0.049430    Uiso  ? O
   O29        1.0     0.950570     1.049430    -0.049430    Uiso  ? O
   H25        1.0     0.093770     0.906230     1.093770    Uiso  ? H
   H25        1.0     0.093770     1.093770     0.906230    Uiso  ? H
   H1         1.0     0.506450     0.780000     1.135550    Uiso  ? H
   C25        1.0     0.506500     0.767450     1.185650    Uiso  ? C
   C1         1.0     0.504100     0.652350     1.152350    Uiso  ? C
   C13        1.0     0.506200     0.702850     1.202850    Uiso  ? C
   H1         1.0     0.506450     0.864450     1.220000    Uiso  ? H
   C25        1.0     0.506500     0.814350     1.232550    Uiso  ? C
   C13        1.0     0.506200     0.797150     1.297150    Uiso  ? C
   C1         1.0     0.504100     0.847650     1.347650    Uiso  ? C
   O1         1.0     0.502600     0.905450     1.329250    Uiso  ? O
   H1         1.0     0.506450     0.635550     1.280000    Uiso  ? H
   C25        1.0     0.506500     0.685650     1.267450    Uiso  ? C
   O1         1.0     0.502600     0.594550     1.170750    Uiso  ? O
   H1         1.0     0.506450     0.720000     1.364450    Uiso  ? H
   C25        1.0     0.506500     0.732550     1.314350    Uiso  ? C
   O1         1.0     0.502600     0.829250     1.405450    Uiso  ? O
   O1         1.0     0.002600     0.829250     0.905450    Uiso  ? O
   O1         1.0    -0.002600     0.829250     1.094550    Uiso  ? O
   O1         1.0    -0.094550     0.829250     1.002600    Uiso  ? O
   Zr1        1.0     0.500000     1.000000     1.379600    Uiso  ? Zr
   Zr1        1.0     0.500000     0.879600     1.500000    Uiso  ? Zr
   Zr1        1.0     0.000000     1.000000     1.120400    Uiso  ? Zr
   O25        1.0    -0.067270     0.932730     0.932730    Uiso  ? O
   O29        1.0    -0.049430     0.950570     1.049430    Uiso  ? O
   H25        1.0     0.906230     0.906230    -0.093770    Uiso  ? H
   H25        1.0     0.906230     1.093770     0.093770    Uiso  ? H
   H1         1.0     0.493550     0.780000    -0.135550    Uiso  ? H
   C25        1.0     0.493500     0.767450    -0.185650    Uiso  ? C
   C1         1.0     0.495900     0.652350    -0.152350    Uiso  ? C
   C13        1.0     0.493800     0.702850    -0.202850    Uiso  ? C
   H1         1.0     0.493550     0.864450    -0.220000    Uiso  ? H
   C25        1.0     0.493500     0.814350    -0.232550    Uiso  ? C
   C13        1.0     0.493800     0.797150    -0.297150    Uiso  ? C
   C1         1.0     0.495900     0.847650    -0.347650    Uiso  ? C
   O1         1.0     0.497400     0.905450    -0.329250    Uiso  ? O
   H1         1.0     0.493550     0.635550    -0.280000    Uiso  ? H
   C25        1.0     0.493500     0.685650    -0.267450    Uiso  ? C
   O1         1.0     0.497400     0.594550    -0.170750    Uiso  ? O
   H1         1.0     0.493550     0.720000    -0.364450    Uiso  ? H
   C25        1.0     0.493500     0.732550    -0.314350    Uiso  ? C
   O1         1.0     0.497400     0.829250    -0.405450    Uiso  ? O
   O1         1.0     0.997400     0.829250     0.094550    Uiso  ? O
   O1         1.0     1.002600     0.829250    -0.094550    Uiso  ? O
   O1         1.0     1.094550     0.829250    -0.002600    Uiso  ? O
   Zr1        1.0     0.500000     1.000000    -0.379600    Uiso  ? Zr
   Zr1        1.0     0.500000     0.879600    -0.500000    Uiso  ? Zr
   Zr1        1.0     1.000000     1.000000    -0.120400    Uiso  ? Zr
   O25        1.0     1.067270     0.932730     0.067270    Uiso  ? O
   O29        1.0     1.049430     0.950570    -0.049430    Uiso  ? O
   H25        1.0     0.093770     0.093770    -0.093770    Uiso  ? H
   H25        1.0     0.093770    -0.093770     0.093770    Uiso  ? H
   H1         1.0     0.506450     0.220000    -0.135550    Uiso  ? H
   C25        1.0     0.506500     0.232550    -0.185650    Uiso  ? C
   C1         1.0     0.504100     0.347650    -0.152350    Uiso  ? C
   C13        1.0     0.506200     0.297150    -0.202850    Uiso  ? C
   H1         1.0     0.506450     0.135550    -0.220000    Uiso  ? H
   C25        1.0     0.506500     0.185650    -0.232550    Uiso  ? C
   C13        1.0     0.506200     0.202850    -0.297150    Uiso  ? C
   C1         1.0     0.504100     0.152350    -0.347650    Uiso  ? C
   O1         1.0     0.502600     0.094550    -0.329250    Uiso  ? O
   H1         1.0     0.506450     0.364450    -0.280000    Uiso  ? H
   C25        1.0     0.506500     0.314350    -0.267450    Uiso  ? C
   O1         1.0     0.502600     0.405450    -0.170750    Uiso  ? O
   H1         1.0     0.506450     0.280000    -0.364450    Uiso  ? H
   C25        1.0     0.506500     0.267450    -0.314350    Uiso  ? C
   O1         1.0     0.502600     0.170750    -0.405450    Uiso  ? O
   O1         1.0     0.002600     0.170750     0.094550    Uiso  ? O
   O1         1.0    -0.002600     0.170750    -0.094550    Uiso  ? O
   O1         1.0    -0.094550     0.170750    -0.002600    Uiso  ? O
   Zr1        1.0     0.500000     0.000000    -0.379600    Uiso  ? Zr
   Zr1        1.0     0.500000     0.120400    -0.500000    Uiso  ? Zr
   Zr1        1.0     0.000000     0.000000    -0.120400    Uiso  ? Zr
   O25        1.0    -0.067270     0.067270     0.067270    Uiso  ? O
   O29        1.0    -0.049430     0.049430    -0.049430    Uiso  ? O
   H25        1.0     0.906230     0.093770     1.093770    Uiso  ? H
   H25        1.0     0.906230    -0.093770     0.906230    Uiso  ? H
   H1         1.0     0.493550     0.220000     1.135550    Uiso  ? H
   C25        1.0     0.493500     0.232550     1.185650    Uiso  ? C
   C1         1.0     0.495900     0.347650     1.152350    Uiso  ? C
   C13        1.0     0.493800     0.297150     1.202850    Uiso  ? C
   H1         1.0     0.493550     0.135550     1.220000    Uiso  ? H
   C25        1.0     0.493500     0.185650     1.232550    Uiso  ? C
   C13        1.0     0.493800     0.202850     1.297150    Uiso  ? C
   C1         1.0     0.495900     0.152350     1.347650    Uiso  ? C
   O1         1.0     0.497400     0.094550     1.329250    Uiso  ? O
   H1         1.0     0.493550     0.364450     1.280000    Uiso  ? H
   C25        1.0     0.493500     0.314350     1.267450    Uiso  ? C
   O1         1.0     0.497400     0.405450     1.170750    Uiso  ? O
   H1         1.0     0.493550     0.280000     1.364450    Uiso  ? H
   C25        1.0     0.493500     0.267450     1.314350    Uiso  ? C
   O1         1.0     0.497400     0.170750     1.405450    Uiso  ? O
   O1         1.0     0.997400     0.170750     0.905450    Uiso  ? O
   O1         1.0     1.002600     0.170750     1.094550    Uiso  ? O
   O1         1.0     1.094550     0.170750     1.002600    Uiso  ? O
   Zr1        1.0     0.500000     0.000000     1.379600    Uiso  ? Zr
   Zr1        1.0     0.500000     0.120400     1.500000    Uiso  ? Zr
   Zr1        1.0     1.000000     0.000000     1.120400    Uiso  ? Zr
   O25        1.0     1.067270     0.067270     0.932730    Uiso  ? O
   O29        1.0     1.049430     0.049430     1.049430    Uiso  ? O
   H1         1.0     0.506450     1.135550     0.780000    Uiso  ? H
   C25        1.0     0.506500     1.185650     0.767450    Uiso  ? C
   C1         1.0     0.504100     1.152350     0.652350    Uiso  ? C
   C13        1.0     0.506200     1.202850     0.702850    Uiso  ? C
   H1         1.0     0.506450     1.220000     0.864450    Uiso  ? H
   C25        1.0     0.506500     1.232550     0.814350    Uiso  ? C
   C13        1.0     0.506200     1.297150     0.797150    Uiso  ? C
   C1         1.0     0.504100     1.347650     0.847650    Uiso  ? C
   O1         1.0     0.502600     1.329250     0.905450    Uiso  ? O
   H1         1.0     0.506450     1.280000     0.635550    Uiso  ? H
   C25        1.0     0.506500     1.267450     0.685650    Uiso  ? C
   O1         1.0     0.502600     1.170750     0.594550    Uiso  ? O
   H1         1.0     0.506450     1.364450     0.720000    Uiso  ? H
   C25        1.0     0.506500     1.314350     0.732550    Uiso  ? C
   O1         1.0     0.502600     1.405450     0.829250    Uiso  ? O
   O1         1.0     0.002600     0.905450     0.829250    Uiso  ? O
   O1         1.0    -0.002600     1.094550     0.829250    Uiso  ? O
   O1         1.0    -0.094550     1.002600     0.829250    Uiso  ? O
   Zr1        1.0     0.500000     1.500000     0.879600    Uiso  ? Zr
   O29        1.0    -0.049430     1.049430     0.950570    Uiso  ? O
   H1         1.0     0.493550    -0.135550     0.780000    Uiso  ? H
   C25        1.0     0.493500    -0.185650     0.767450    Uiso  ? C
   C1         1.0     0.495900    -0.152350     0.652350    Uiso  ? C
   C13        1.0     0.493800    -0.202850     0.702850    Uiso  ? C
   H1         1.0     0.493550    -0.220000     0.864450    Uiso  ? H
   C25        1.0     0.493500    -0.232550     0.814350    Uiso  ? C
   C13        1.0     0.493800    -0.297150     0.797150    Uiso  ? C
   C1         1.0     0.495900    -0.347650     0.847650    Uiso  ? C
   O1         1.0     0.497400    -0.329250     0.905450    Uiso  ? O
   H1         1.0     0.493550    -0.280000     0.635550    Uiso  ? H
   C25        1.0     0.493500    -0.267450     0.685650    Uiso  ? C
   O1         1.0     0.497400    -0.170750     0.594550    Uiso  ? O
   H1         1.0     0.493550    -0.364450     0.720000    Uiso  ? H
   C25        1.0     0.493500    -0.314350     0.732550    Uiso  ? C
   O1         1.0     0.497400    -0.405450     0.829250    Uiso  ? O
   O1         1.0     0.997400     0.094550     0.829250    Uiso  ? O
   O1         1.0     1.002600    -0.094550     0.829250    Uiso  ? O
   O1         1.0     1.094550    -0.002600     0.829250    Uiso  ? O
   Zr1        1.0     0.500000    -0.500000     0.879600    Uiso  ? Zr
   O29        1.0     1.049430    -0.049430     0.950570    Uiso  ? O
   H1         1.0     0.506450    -0.135550     0.220000    Uiso  ? H
   C25        1.0     0.506500    -0.185650     0.232550    Uiso  ? C
   C1         1.0     0.504100    -0.152350     0.347650    Uiso  ? C
   C13        1.0     0.506200    -0.202850     0.297150    Uiso  ? C
   H1         1.0     0.506450    -0.220000     0.135550    Uiso  ? H
   C25        1.0     0.506500    -0.232550     0.185650    Uiso  ? C
   C13        1.0     0.506200    -0.297150     0.202850    Uiso  ? C
   C1         1.0     0.504100    -0.347650     0.152350    Uiso  ? C
   O1         1.0     0.502600    -0.329250     0.094550    Uiso  ? O
   H1         1.0     0.506450    -0.280000     0.364450    Uiso  ? H
   C25        1.0     0.506500    -0.267450     0.314350    Uiso  ? C
   O1         1.0     0.502600    -0.170750     0.405450    Uiso  ? O
   H1         1.0     0.506450    -0.364450     0.280000    Uiso  ? H
   C25        1.0     0.506500    -0.314350     0.267450    Uiso  ? C
   O1         1.0     0.502600    -0.405450     0.170750    Uiso  ? O
   O1         1.0     0.002600     0.094550     0.170750    Uiso  ? O
   O1         1.0    -0.002600    -0.094550     0.170750    Uiso  ? O
   O1         1.0    -0.094550    -0.002600     0.170750    Uiso  ? O
   Zr1        1.0     0.500000    -0.500000     0.120400    Uiso  ? Zr
   O29        1.0    -0.049430    -0.049430     0.049430    Uiso  ? O
   H1         1.0     0.493550     1.135550     0.220000    Uiso  ? H
   C25        1.0     0.493500     1.185650     0.232550    Uiso  ? C
   C1         1.0     0.495900     1.152350     0.347650    Uiso  ? C
   C13        1.0     0.493800     1.202850     0.297150    Uiso  ? C
   H1         1.0     0.493550     1.220000     0.135550    Uiso  ? H
   C25        1.0     0.493500     1.232550     0.185650    Uiso  ? C
   C13        1.0     0.493800     1.297150     0.202850    Uiso  ? C
   C1         1.0     0.495900     1.347650     0.152350    Uiso  ? C
   O1         1.0     0.497400     1.329250     0.094550    Uiso  ? O
   H1         1.0     0.493550     1.280000     0.364450    Uiso  ? H
   C25        1.0     0.493500     1.267450     0.314350    Uiso  ? C
   O1         1.0     0.497400     1.170750     0.405450    Uiso  ? O
   H1         1.0     0.493550     1.364450     0.280000    Uiso  ? H
   C25        1.0     0.493500     1.314350     0.267450    Uiso  ? C
   O1         1.0     0.497400     1.405450     0.170750    Uiso  ? O
   O1         1.0     0.997400     0.905450     0.170750    Uiso  ? O
   O1         1.0     1.002600     1.094550     0.170750    Uiso  ? O
   O1         1.0     1.094550     1.002600     0.170750    Uiso  ? O
   Zr1        1.0     0.500000     1.500000     0.120400    Uiso  ? Zr
   O29        1.0     1.049430     1.049430     0.049430    Uiso  ? O
   H1         1.0     0.635550     0.780000     1.006450    Uiso  ? H
   C25        1.0     0.685650     0.767450     1.006500    Uiso  ? C
   C1         1.0     0.652350     0.652350     1.004100    Uiso  ? C
   C13        1.0     0.702850     0.702850     1.006200    Uiso  ? C
   H1         1.0     0.720000     0.864450     1.006450    Uiso  ? H
   C25        1.0     0.732550     0.814350     1.006500    Uiso  ? C
   C13        1.0     0.797150     0.797150     1.006200    Uiso  ? C
   C1         1.0     0.847650     0.847650     1.004100    Uiso  ? C
   O1         1.0     0.829250     0.905450     1.002600    Uiso  ? O
   H1         1.0     0.780000     0.635550     1.006450    Uiso  ? H
   C25        1.0     0.767450     0.685650     1.006500    Uiso  ? C
   H1         1.0     0.864450     0.720000     1.006450    Uiso  ? H
   C25        1.0     0.814350     0.732550     1.006500    Uiso  ? C
   O1         1.0     0.905450     0.829250     1.002600    Uiso  ? O
   Zr1        1.0     1.000000     0.879600     1.000000    Uiso  ? Zr
   H1         1.0     0.364450     0.780000    -0.006450    Uiso  ? H
   C25        1.0     0.314350     0.767450    -0.006500    Uiso  ? C
   C1         1.0     0.347650     0.652350    -0.004100    Uiso  ? C
   C13        1.0     0.297150     0.702850    -0.006200    Uiso  ? C
   H1         1.0     0.280000     0.864450    -0.006450    Uiso  ? H
   C25        1.0     0.267450     0.814350    -0.006500    Uiso  ? C
   C13        1.0     0.202850     0.797150    -0.006200    Uiso  ? C
   C1         1.0     0.152350     0.847650    -0.004100    Uiso  ? C
   O1         1.0     0.170750     0.905450    -0.002600    Uiso  ? O
   H1         1.0     0.220000     0.635550    -0.006450    Uiso  ? H
   C25        1.0     0.232550     0.685650    -0.006500    Uiso  ? C
   H1         1.0     0.135550     0.720000    -0.006450    Uiso  ? H
   C25        1.0     0.185650     0.732550    -0.006500    Uiso  ? C
   O1         1.0     0.094550     0.829250    -0.002600    Uiso  ? O
   Zr1        1.0     0.000000     0.879600     0.000000    Uiso  ? Zr
   H1         1.0     0.364450     0.220000     1.006450    Uiso  ? H
   C25        1.0     0.314350     0.232550     1.006500    Uiso  ? C
   C1         1.0     0.347650     0.347650     1.004100    Uiso  ? C
   C13        1.0     0.297150     0.297150     1.006200    Uiso  ? C
   H1         1.0     0.280000     0.135550     1.006450    Uiso  ? H
   C25        1.0     0.267450     0.185650     1.006500    Uiso  ? C
   C13        1.0     0.202850     0.202850     1.006200    Uiso  ? C
   C1         1.0     0.152350     0.152350     1.004100    Uiso  ? C
   O1         1.0     0.170750     0.094550     1.002600    Uiso  ? O
   H1         1.0     0.220000     0.364450     1.006450    Uiso  ? H
   C25        1.0     0.232550     0.314350     1.006500    Uiso  ? C
   H1         1.0     0.135550     0.280000     1.006450    Uiso  ? H
   C25        1.0     0.185650     0.267450     1.006500    Uiso  ? C
   O1         1.0     0.094550     0.170750     1.002600    Uiso  ? O
   Zr1        1.0     0.000000     0.120400     1.000000    Uiso  ? Zr
   H1         1.0     0.635550     0.220000    -0.006450    Uiso  ? H
   C25        1.0     0.685650     0.232550    -0.006500    Uiso  ? C
   C1         1.0     0.652350     0.347650    -0.004100    Uiso  ? C
   C13        1.0     0.702850     0.297150    -0.006200    Uiso  ? C
   H1         1.0     0.720000     0.135550    -0.006450    Uiso  ? H
   C25        1.0     0.732550     0.185650    -0.006500    Uiso  ? C
   C13        1.0     0.797150     0.202850    -0.006200    Uiso  ? C
   C1         1.0     0.847650     0.152350    -0.004100    Uiso  ? C
   O1         1.0     0.829250     0.094550    -0.002600    Uiso  ? O
   H1         1.0     0.780000     0.364450    -0.006450    Uiso  ? H
   C25        1.0     0.767450     0.314350    -0.006500    Uiso  ? C
   H1         1.0     0.864450     0.280000    -0.006450    Uiso  ? H
   C25        1.0     0.814350     0.267450    -0.006500    Uiso  ? C
   O1         1.0     0.905450     0.170750    -0.002600    Uiso  ? O
   Zr1        1.0     1.000000     0.120400     0.000000    Uiso  ? Zr
   H1         1.0     0.280000     1.006450     1.135550    Uiso  ? H
   C25        1.0     0.267450     1.006500     1.185650    Uiso  ? C
   C1         1.0     0.152350     1.004100     1.152350    Uiso  ? C
   C13        1.0     0.202850     1.006200     1.202850    Uiso  ? C
   H1         1.0     0.364450     1.006450     1.220000    Uiso  ? H
   C25        1.0     0.314350     1.006500     1.232550    Uiso  ? C
   C13        1.0     0.297150     1.006200     1.297150    Uiso  ? C
   C1         1.0     0.347650     1.004100     1.347650    Uiso  ? C
   O1         1.0     0.405450     1.002600     1.329250    Uiso  ? O
   H1         1.0     0.135550     1.006450     1.280000    Uiso  ? H
   C25        1.0     0.185650     1.006500     1.267450    Uiso  ? C
   O1         1.0     0.094550     1.002600     1.170750    Uiso  ? O
   H1         1.0     0.220000     1.006450     1.364450    Uiso  ? H
   C25        1.0     0.232550     1.006500     1.314350    Uiso  ? C
   O1         1.0     0.329250     1.002600     1.405450    Uiso  ? O
   Zr1        1.0     0.379600     1.000000     1.500000    Uiso  ? Zr
   H1         1.0     0.280000    -0.006450    -0.135550    Uiso  ? H
   C25        1.0     0.267450    -0.006500    -0.185650    Uiso  ? C
   C1         1.0     0.152350    -0.004100    -0.152350    Uiso  ? C
   C13        1.0     0.202850    -0.006200    -0.202850    Uiso  ? C
   H1         1.0     0.364450    -0.006450    -0.220000    Uiso  ? H
   C25        1.0     0.314350    -0.006500    -0.232550    Uiso  ? C
   C13        1.0     0.297150    -0.006200    -0.297150    Uiso  ? C
   C1         1.0     0.347650    -0.004100    -0.347650    Uiso  ? C
   O1         1.0     0.405450    -0.002600    -0.329250    Uiso  ? O
   H1         1.0     0.135550    -0.006450    -0.280000    Uiso  ? H
   C25        1.0     0.185650    -0.006500    -0.267450    Uiso  ? C
   O1         1.0     0.094550    -0.002600    -0.170750    Uiso  ? O
   H1         1.0     0.220000    -0.006450    -0.364450    Uiso  ? H
   C25        1.0     0.232550    -0.006500    -0.314350    Uiso  ? C
   O1         1.0     0.329250    -0.002600    -0.405450    Uiso  ? O
   Zr1        1.0     0.379600     0.000000    -0.500000    Uiso  ? Zr
   H1         1.0     0.720000     1.006450    -0.135550    Uiso  ? H
   C25        1.0     0.732550     1.006500    -0.185650    Uiso  ? C
   C1         1.0     0.847650     1.004100    -0.152350    Uiso  ? C
   C13        1.0     0.797150     1.006200    -0.202850    Uiso  ? C
   H1         1.0     0.635550     1.006450    -0.220000    Uiso  ? H
   C25        1.0     0.685650     1.006500    -0.232550    Uiso  ? C
   C13        1.0     0.702850     1.006200    -0.297150    Uiso  ? C
   C1         1.0     0.652350     1.004100    -0.347650    Uiso  ? C
   O1         1.0     0.594550     1.002600    -0.329250    Uiso  ? O
   H1         1.0     0.864450     1.006450    -0.280000    Uiso  ? H
   C25        1.0     0.814350     1.006500    -0.267450    Uiso  ? C
   O1         1.0     0.905450     1.002600    -0.170750    Uiso  ? O
   H1         1.0     0.780000     1.006450    -0.364450    Uiso  ? H
   C25        1.0     0.767450     1.006500    -0.314350    Uiso  ? C
   O1         1.0     0.670750     1.002600    -0.405450    Uiso  ? O
   Zr1        1.0     0.620400     1.000000    -0.500000    Uiso  ? Zr
   H1         1.0     0.720000    -0.006450     1.135550    Uiso  ? H
   C25        1.0     0.732550    -0.006500     1.185650    Uiso  ? C
   C1         1.0     0.847650    -0.004100     1.152350    Uiso  ? C
   C13        1.0     0.797150    -0.006200     1.202850    Uiso  ? C
   H1         1.0     0.635550    -0.006450     1.220000    Uiso  ? H
   C25        1.0     0.685650    -0.006500     1.232550    Uiso  ? C
   C13        1.0     0.702850    -0.006200     1.297150    Uiso  ? C
   C1         1.0     0.652350    -0.004100     1.347650    Uiso  ? C
   O1         1.0     0.594550    -0.002600     1.329250    Uiso  ? O
   H1         1.0     0.864450    -0.006450     1.280000    Uiso  ? H
   C25        1.0     0.814350    -0.006500     1.267450    Uiso  ? C
   O1         1.0     0.905450    -0.002600     1.170750    Uiso  ? O
   H1         1.0     0.780000    -0.006450     1.364450    Uiso  ? H
   C25        1.0     0.767450    -0.006500     1.314350    Uiso  ? C
   O1         1.0     0.670750    -0.002600     1.405450    Uiso  ? O
   Zr1        1.0     0.620400     0.000000     1.500000    Uiso  ? Zr
   H1         1.0     0.993550     0.280000     0.864450    Uiso  ? H
   C25        1.0     0.993500     0.267450     0.814350    Uiso  ? C
   C1         1.0     0.995900     0.152350     0.847650    Uiso  ? C
   C13        1.0     0.993800     0.202850     0.797150    Uiso  ? C
   H1         1.0     0.993550     0.364450     0.780000    Uiso  ? H
   C25        1.0     0.993500     0.314350     0.767450    Uiso  ? C
   C13        1.0     0.993800     0.297150     0.702850    Uiso  ? C
   C1         1.0     0.995900     0.347650     0.652350    Uiso  ? C
   H1         1.0     0.993550     0.135550     0.720000    Uiso  ? H
   C25        1.0     0.993500     0.185650     0.732550    Uiso  ? C
   H1         1.0     0.993550     0.220000     0.635550    Uiso  ? H
   C25        1.0     0.993500     0.232550     0.685650    Uiso  ? C
   H25        1.0     1.093770     0.093770     0.906230    Uiso  ? H
   H1         1.0     1.135550     0.506450     0.780000    Uiso  ? H
   C25        1.0     1.185650     0.506500     0.767450    Uiso  ? C
   C1         1.0     1.152350     0.504100     0.652350    Uiso  ? C
   C13        1.0     1.202850     0.506200     0.702850    Uiso  ? C
   H1         1.0     1.220000     0.506450     0.864450    Uiso  ? H
   C25        1.0     1.232550     0.506500     0.814350    Uiso  ? C
   C13        1.0     1.297150     0.506200     0.797150    Uiso  ? C
   C1         1.0     1.347650     0.504100     0.847650    Uiso  ? C
   O1         1.0     1.329250     0.502600     0.905450    Uiso  ? O
   H1         1.0     1.280000     0.506450     0.635550    Uiso  ? H
   C25        1.0     1.267450     0.506500     0.685650    Uiso  ? C
   O1         1.0     1.170750     0.502600     0.594550    Uiso  ? O
   H1         1.0     1.364450     0.506450     0.720000    Uiso  ? H
   C25        1.0     1.314350     0.506500     0.732550    Uiso  ? C
   O1         1.0     1.405450     0.502600     0.829250    Uiso  ? O
   Zr1        1.0     1.379600     0.500000     1.000000    Uiso  ? Zr
   Zr1        1.0     1.500000     0.500000     0.879600    Uiso  ? Zr
   Zr1        1.0     1.120400     0.500000     0.500000    Uiso  ? Zr
   Zr1        1.0     1.120400     0.000000     1.000000    Uiso  ? Zr
   H1         1.0     0.006450     0.720000     0.864450    Uiso  ? H
   C25        1.0     0.006500     0.732550     0.814350    Uiso  ? C
   C1         1.0     0.004100     0.847650     0.847650    Uiso  ? C
   C13        1.0     0.006200     0.797150     0.797150    Uiso  ? C
   H1         1.0     0.006450     0.635550     0.780000    Uiso  ? H
   C25        1.0     0.006500     0.685650     0.767450    Uiso  ? C
   C13        1.0     0.006200     0.702850     0.702850    Uiso  ? C
   C1         1.0     0.004100     0.652350     0.652350    Uiso  ? C
   H1         1.0     0.006450     0.864450     0.720000    Uiso  ? H
   C25        1.0     0.006500     0.814350     0.732550    Uiso  ? C
   H1         1.0     0.006450     0.780000     0.635550    Uiso  ? H
   C25        1.0     0.006500     0.767450     0.685650    Uiso  ? C
   H25        1.0    -0.093770     0.906230     0.906230    Uiso  ? H
   H1         1.0    -0.135550     0.493550     0.780000    Uiso  ? H
   C25        1.0    -0.185650     0.493500     0.767450    Uiso  ? C
   C1         1.0    -0.152350     0.495900     0.652350    Uiso  ? C
   C13        1.0    -0.202850     0.493800     0.702850    Uiso  ? C
   H1         1.0    -0.220000     0.493550     0.864450    Uiso  ? H
   C25        1.0    -0.232550     0.493500     0.814350    Uiso  ? C
   C13        1.0    -0.297150     0.493800     0.797150    Uiso  ? C
   C1         1.0    -0.347650     0.495900     0.847650    Uiso  ? C
   O1         1.0    -0.329250     0.497400     0.905450    Uiso  ? O
   H1         1.0    -0.280000     0.493550     0.635550    Uiso  ? H
   C25        1.0    -0.267450     0.493500     0.685650    Uiso  ? C
   O1         1.0    -0.170750     0.497400     0.594550    Uiso  ? O
   H1         1.0    -0.364450     0.493550     0.720000    Uiso  ? H
   C25        1.0    -0.314350     0.493500     0.732550    Uiso  ? C
   O1         1.0    -0.405450     0.497400     0.829250    Uiso  ? O
   Zr1        1.0    -0.379600     0.500000     1.000000    Uiso  ? Zr
   Zr1        1.0    -0.500000     0.500000     0.879600    Uiso  ? Zr
   Zr1        1.0    -0.120400     0.500000     0.500000    Uiso  ? Zr
   Zr1        1.0    -0.120400     1.000000     1.000000    Uiso  ? Zr
   H1         1.0     0.006450     0.280000     0.135550    Uiso  ? H
   C25        1.0     0.006500     0.267450     0.185650    Uiso  ? C
   C1         1.0     0.004100     0.152350     0.152350    Uiso  ? C
   C13        1.0     0.006200     0.202850     0.202850    Uiso  ? C
   H1         1.0     0.006450     0.364450     0.220000    Uiso  ? H
   C25        1.0     0.006500     0.314350     0.232550    Uiso  ? C
   C13        1.0     0.006200     0.297150     0.297150    Uiso  ? C
   C1         1.0     0.004100     0.347650     0.347650    Uiso  ? C
   H1         1.0     0.006450     0.135550     0.280000    Uiso  ? H
   C25        1.0     0.006500     0.185650     0.267450    Uiso  ? C
   H1         1.0     0.006450     0.220000     0.364450    Uiso  ? H
   C25        1.0     0.006500     0.232550     0.314350    Uiso  ? C
   H25        1.0    -0.093770     0.093770     0.093770    Uiso  ? H
   H1         1.0    -0.135550     0.506450     0.220000    Uiso  ? H
   C25        1.0    -0.185650     0.506500     0.232550    Uiso  ? C
   C1         1.0    -0.152350     0.504100     0.347650    Uiso  ? C
   C13        1.0    -0.202850     0.506200     0.297150    Uiso  ? C
   H1         1.0    -0.220000     0.506450     0.135550    Uiso  ? H
   C25        1.0    -0.232550     0.506500     0.185650    Uiso  ? C
   C13        1.0    -0.297150     0.506200     0.202850    Uiso  ? C
   C1         1.0    -0.347650     0.504100     0.152350    Uiso  ? C
   O1         1.0    -0.329250     0.502600     0.094550    Uiso  ? O
   H1         1.0    -0.280000     0.506450     0.364450    Uiso  ? H
   C25        1.0    -0.267450     0.506500     0.314350    Uiso  ? C
   O1         1.0    -0.170750     0.502600     0.405450    Uiso  ? O
   H1         1.0    -0.364450     0.506450     0.280000    Uiso  ? H
   C25        1.0    -0.314350     0.506500     0.267450    Uiso  ? C
   O1         1.0    -0.405450     0.502600     0.170750    Uiso  ? O
   Zr1        1.0    -0.379600     0.500000     0.000000    Uiso  ? Zr
   Zr1        1.0    -0.500000     0.500000     0.120400    Uiso  ? Zr
   Zr1        1.0    -0.120400     0.000000     0.000000    Uiso  ? Zr
   H1         1.0     0.993550     0.720000     0.135550    Uiso  ? H
   C25        1.0     0.993500     0.732550     0.185650    Uiso  ? C
   C1         1.0     0.995900     0.847650     0.152350    Uiso  ? C
   C13        1.0     0.993800     0.797150     0.202850    Uiso  ? C
   H1         1.0     0.993550     0.635550     0.220000    Uiso  ? H
   C25        1.0     0.993500     0.685650     0.232550    Uiso  ? C
   C13        1.0     0.993800     0.702850     0.297150    Uiso  ? C
   C1         1.0     0.995900     0.652350     0.347650    Uiso  ? C
   H1         1.0     0.993550     0.864450     0.280000    Uiso  ? H
   C25        1.0     0.993500     0.814350     0.267450    Uiso  ? C
   H1         1.0     0.993550     0.780000     0.364450    Uiso  ? H
   C25        1.0     0.993500     0.767450     0.314350    Uiso  ? C
   H25        1.0     1.093770     0.906230     0.093770    Uiso  ? H
   H1         1.0     1.135550     0.493550     0.220000    Uiso  ? H
   C25        1.0     1.185650     0.493500     0.232550    Uiso  ? C
   C1         1.0     1.152350     0.495900     0.347650    Uiso  ? C
   C13        1.0     1.202850     0.493800     0.297150    Uiso  ? C
   H1         1.0     1.220000     0.493550     0.135550    Uiso  ? H
   C25        1.0     1.232550     0.493500     0.185650    Uiso  ? C
   C13        1.0     1.297150     0.493800     0.202850    Uiso  ? C
   C1         1.0     1.347650     0.495900     0.152350    Uiso  ? C
   O1         1.0     1.329250     0.497400     0.094550    Uiso  ? O
   H1         1.0     1.280000     0.493550     0.364450    Uiso  ? H
   C25        1.0     1.267450     0.493500     0.314350    Uiso  ? C
   O1         1.0     1.170750     0.497400     0.405450    Uiso  ? O
   H1         1.0     1.364450     0.493550     0.280000    Uiso  ? H
   C25        1.0     1.314350     0.493500     0.267450    Uiso  ? C
   O1         1.0     1.405450     0.497400     0.170750    Uiso  ? O
   Zr1        1.0     1.379600     0.500000     0.000000    Uiso  ? Zr
   Zr1        1.0     1.500000     0.500000     0.120400    Uiso  ? Zr
   Zr1        1.0     1.120400     1.000000     0.000000    Uiso  ? Zr
   H25        1.0     1.093770     0.406230     0.593770    Uiso  ? H
   H25        1.0     1.093770     0.593770     0.406230    Uiso  ? H
   H25        1.0    -0.093770     0.593770     0.593770    Uiso  ? H
   H25        1.0    -0.093770     0.406230     0.406230    Uiso  ? H
   H1         1.0     1.006450     0.280000     1.135550    Uiso  ? H
   C25        1.0     1.006500     0.267450     1.185650    Uiso  ? C
   C1         1.0     1.004100     0.152350     1.152350    Uiso  ? C
   C13        1.0     1.006200     0.202850     1.202850    Uiso  ? C
   H1         1.0     1.006450     0.364450     1.220000    Uiso  ? H
   C25        1.0     1.006500     0.314350     1.232550    Uiso  ? C
   C13        1.0     1.006200     0.297150     1.297150    Uiso  ? C
   C1         1.0     1.004100     0.347650     1.347650    Uiso  ? C
   O1         1.0     1.002600     0.405450     1.329250    Uiso  ? O
   H1         1.0     1.006450     0.135550     1.280000    Uiso  ? H
   C25        1.0     1.006500     0.185650     1.267450    Uiso  ? C
   O1         1.0     1.002600     0.094550     1.170750    Uiso  ? O
   H1         1.0     1.006450     0.220000     1.364450    Uiso  ? H
   C25        1.0     1.006500     0.232550     1.314350    Uiso  ? C
   O1         1.0     1.002600     0.329250     1.405450    Uiso  ? O
   Zr1        1.0     1.000000     0.500000     1.379600    Uiso  ? Zr
   Zr1        1.0     1.000000     0.379600     1.500000    Uiso  ? Zr
   H1         1.0    -0.006450     0.280000    -0.135550    Uiso  ? H
   C25        1.0    -0.006500     0.267450    -0.185650    Uiso  ? C
   C1         1.0    -0.004100     0.152350    -0.152350    Uiso  ? C
   C13        1.0    -0.006200     0.202850    -0.202850    Uiso  ? C
   H1         1.0    -0.006450     0.364450    -0.220000    Uiso  ? H
   C25        1.0    -0.006500     0.314350    -0.232550    Uiso  ? C
   C13        1.0    -0.006200     0.297150    -0.297150    Uiso  ? C
   C1         1.0    -0.004100     0.347650    -0.347650    Uiso  ? C
   O1         1.0    -0.002600     0.405450    -0.329250    Uiso  ? O
   H1         1.0    -0.006450     0.135550    -0.280000    Uiso  ? H
   C25        1.0    -0.006500     0.185650    -0.267450    Uiso  ? C
   O1         1.0    -0.002600     0.094550    -0.170750    Uiso  ? O
   H1         1.0    -0.006450     0.220000    -0.364450    Uiso  ? H
   C25        1.0    -0.006500     0.232550    -0.314350    Uiso  ? C
   O1         1.0    -0.002600     0.329250    -0.405450    Uiso  ? O
   Zr1        1.0     0.000000     0.500000    -0.379600    Uiso  ? Zr
   Zr1        1.0     0.000000     0.379600    -0.500000    Uiso  ? Zr
   H1         1.0     1.006450     0.720000    -0.135550    Uiso  ? H
   C25        1.0     1.006500     0.732550    -0.185650    Uiso  ? C
   C1         1.0     1.004100     0.847650    -0.152350    Uiso  ? C
   C13        1.0     1.006200     0.797150    -0.202850    Uiso  ? C
   H1         1.0     1.006450     0.635550    -0.220000    Uiso  ? H
   C25        1.0     1.006500     0.685650    -0.232550    Uiso  ? C
   C13        1.0     1.006200     0.702850    -0.297150    Uiso  ? C
   C1         1.0     1.004100     0.652350    -0.347650    Uiso  ? C
   O1         1.0     1.002600     0.594550    -0.329250    Uiso  ? O
   H1         1.0     1.006450     0.864450    -0.280000    Uiso  ? H
   C25        1.0     1.006500     0.814350    -0.267450    Uiso  ? C
   O1         1.0     1.002600     0.905450    -0.170750    Uiso  ? O
   H1         1.0     1.006450     0.780000    -0.364450    Uiso  ? H
   C25        1.0     1.006500     0.767450    -0.314350    Uiso  ? C
   O1         1.0     1.002600     0.670750    -0.405450    Uiso  ? O
   Zr1        1.0     1.000000     0.500000    -0.379600    Uiso  ? Zr
   Zr1        1.0     1.000000     0.620400    -0.500000    Uiso  ? Zr
   H1         1.0    -0.006450     0.720000     1.135550    Uiso  ? H
   C25        1.0    -0.006500     0.732550     1.185650    Uiso  ? C
   C1         1.0    -0.004100     0.847650     1.152350    Uiso  ? C
   C13        1.0    -0.006200     0.797150     1.202850    Uiso  ? C
   H1         1.0    -0.006450     0.635550     1.220000    Uiso  ? H
   C25        1.0    -0.006500     0.685650     1.232550    Uiso  ? C
   C13        1.0    -0.006200     0.702850     1.297150    Uiso  ? C
   C1         1.0    -0.004100     0.652350     1.347650    Uiso  ? C
   O1         1.0    -0.002600     0.594550     1.329250    Uiso  ? O
   H1         1.0    -0.006450     0.864450     1.280000    Uiso  ? H
   C25        1.0    -0.006500     0.814350     1.267450    Uiso  ? C
   O1         1.0    -0.002600     0.905450     1.170750    Uiso  ? O
   H1         1.0    -0.006450     0.780000     1.364450    Uiso  ? H
   C25        1.0    -0.006500     0.767450     1.314350    Uiso  ? C
   O1         1.0    -0.002600     0.670750     1.405450    Uiso  ? O
   Zr1        1.0     0.000000     0.500000     1.379600    Uiso  ? Zr
   Zr1        1.0     0.000000     0.620400     1.500000    Uiso  ? Zr
   H1         1.0     1.006450     0.635550     0.780000    Uiso  ? H
   C25        1.0     1.006500     0.685650     0.767450    Uiso  ? C
   C1         1.0     1.004100     0.652350     0.652350    Uiso  ? C
   C13        1.0     1.006200     0.702850     0.702850    Uiso  ? C
   H1         1.0     1.006450     0.720000     0.864450    Uiso  ? H
   C25        1.0     1.006500     0.732550     0.814350    Uiso  ? C
   C13        1.0     1.006200     0.797150     0.797150    Uiso  ? C
   C1         1.0     1.004100     0.847650     0.847650    Uiso  ? C
   O1         1.0     1.002600     0.829250     0.905450    Uiso  ? O
   H1         1.0     1.006450     0.780000     0.635550    Uiso  ? H
   C25        1.0     1.006500     0.767450     0.685650    Uiso  ? C
   H1         1.0     1.006450     0.864450     0.720000    Uiso  ? H
   C25        1.0     1.006500     0.814350     0.732550    Uiso  ? C
   O1         1.0     1.002600     0.905450     0.829250    Uiso  ? O
   H1         1.0    -0.006450     0.364450     0.780000    Uiso  ? H
   C25        1.0    -0.006500     0.314350     0.767450    Uiso  ? C
   C1         1.0    -0.004100     0.347650     0.652350    Uiso  ? C
   C13        1.0    -0.006200     0.297150     0.702850    Uiso  ? C
   H1         1.0    -0.006450     0.280000     0.864450    Uiso  ? H
   C25        1.0    -0.006500     0.267450     0.814350    Uiso  ? C
   C13        1.0    -0.006200     0.202850     0.797150    Uiso  ? C
   C1         1.0    -0.004100     0.152350     0.847650    Uiso  ? C
   O1         1.0    -0.002600     0.170750     0.905450    Uiso  ? O
   H1         1.0    -0.006450     0.220000     0.635550    Uiso  ? H
   C25        1.0    -0.006500     0.232550     0.685650    Uiso  ? C
   H1         1.0    -0.006450     0.135550     0.720000    Uiso  ? H
   C25        1.0    -0.006500     0.185650     0.732550    Uiso  ? C
   O1         1.0    -0.002600     0.094550     0.829250    Uiso  ? O
   H1         1.0     1.006450     0.364450     0.220000    Uiso  ? H
   C25        1.0     1.006500     0.314350     0.232550    Uiso  ? C
   C1         1.0     1.004100     0.347650     0.347650    Uiso  ? C
   C13        1.0     1.006200     0.297150     0.297150    Uiso  ? C
   H1         1.0     1.006450     0.280000     0.135550    Uiso  ? H
   C25        1.0     1.006500     0.267450     0.185650    Uiso  ? C
   C13        1.0     1.006200     0.202850     0.202850    Uiso  ? C
   C1         1.0     1.004100     0.152350     0.152350    Uiso  ? C
   O1         1.0     1.002600     0.170750     0.094550    Uiso  ? O
   H1         1.0     1.006450     0.220000     0.364450    Uiso  ? H
   C25        1.0     1.006500     0.232550     0.314350    Uiso  ? C
   H1         1.0     1.006450     0.135550     0.280000    Uiso  ? H
   C25        1.0     1.006500     0.185650     0.267450    Uiso  ? C
   O1         1.0     1.002600     0.094550     0.170750    Uiso  ? O
   H1         1.0    -0.006450     0.635550     0.220000    Uiso  ? H
   C25        1.0    -0.006500     0.685650     0.232550    Uiso  ? C
   C1         1.0    -0.004100     0.652350     0.347650    Uiso  ? C
   C13        1.0    -0.006200     0.702850     0.297150    Uiso  ? C
   H1         1.0    -0.006450     0.720000     0.135550    Uiso  ? H
   C25        1.0    -0.006500     0.732550     0.185650    Uiso  ? C
   C13        1.0    -0.006200     0.797150     0.202850    Uiso  ? C
   C1         1.0    -0.004100     0.847650     0.152350    Uiso  ? C
   O1         1.0    -0.002600     0.829250     0.094550    Uiso  ? O
   H1         1.0    -0.006450     0.780000     0.364450    Uiso  ? H
   C25        1.0    -0.006500     0.767450     0.314350    Uiso  ? C
   H1         1.0    -0.006450     0.864450     0.280000    Uiso  ? H
   C25        1.0    -0.006500     0.814350     0.267450    Uiso  ? C
   O1         1.0    -0.002600     0.905450     0.170750    Uiso  ? O
   H1         1.0     1.135550     0.280000     1.006450    Uiso  ? H
   C25        1.0     1.185650     0.267450     1.006500    Uiso  ? C
   C1         1.0     1.152350     0.152350     1.004100    Uiso  ? C
   C13        1.0     1.202850     0.202850     1.006200    Uiso  ? C
   H1         1.0     1.220000     0.364450     1.006450    Uiso  ? H
   C25        1.0     1.232550     0.314350     1.006500    Uiso  ? C
   C13        1.0     1.297150     0.297150     1.006200    Uiso  ? C
   C1         1.0     1.347650     0.347650     1.004100    Uiso  ? C
   O1         1.0     1.329250     0.405450     1.002600    Uiso  ? O
   H1         1.0     1.280000     0.135550     1.006450    Uiso  ? H
   C25        1.0     1.267450     0.185650     1.006500    Uiso  ? C
   O1         1.0     1.170750     0.094550     1.002600    Uiso  ? O
   H1         1.0     1.364450     0.220000     1.006450    Uiso  ? H
   C25        1.0     1.314350     0.232550     1.006500    Uiso  ? C
   O1         1.0     1.405450     0.329250     1.002600    Uiso  ? O
   Zr1        1.0     1.500000     0.379600     1.000000    Uiso  ? Zr
   H1         1.0    -0.135550     0.280000    -0.006450    Uiso  ? H
   C25        1.0    -0.185650     0.267450    -0.006500    Uiso  ? C
   C1         1.0    -0.152350     0.152350    -0.004100    Uiso  ? C
   C13        1.0    -0.202850     0.202850    -0.006200    Uiso  ? C
   H1         1.0    -0.220000     0.364450    -0.006450    Uiso  ? H
   C25        1.0    -0.232550     0.314350    -0.006500    Uiso  ? C
   C13        1.0    -0.297150     0.297150    -0.006200    Uiso  ? C
   C1         1.0    -0.347650     0.347650    -0.004100    Uiso  ? C
   O1         1.0    -0.329250     0.405450    -0.002600    Uiso  ? O
   H1         1.0    -0.280000     0.135550    -0.006450    Uiso  ? H
   C25        1.0    -0.267450     0.185650    -0.006500    Uiso  ? C
   O1         1.0    -0.170750     0.094550    -0.002600    Uiso  ? O
   H1         1.0    -0.364450     0.220000    -0.006450    Uiso  ? H
   C25        1.0    -0.314350     0.232550    -0.006500    Uiso  ? C
   O1         1.0    -0.405450     0.329250    -0.002600    Uiso  ? O
   Zr1        1.0    -0.500000     0.379600     0.000000    Uiso  ? Zr
   H1         1.0    -0.135550     0.720000     1.006450    Uiso  ? H
   C25        1.0    -0.185650     0.732550     1.006500    Uiso  ? C
   C1         1.0    -0.152350     0.847650     1.004100    Uiso  ? C
   C13        1.0    -0.202850     0.797150     1.006200    Uiso  ? C
   H1         1.0    -0.220000     0.635550     1.006450    Uiso  ? H
   C25        1.0    -0.232550     0.685650     1.006500    Uiso  ? C
   C13        1.0    -0.297150     0.702850     1.006200    Uiso  ? C
   C1         1.0    -0.347650     0.652350     1.004100    Uiso  ? C
   O1         1.0    -0.329250     0.594550     1.002600    Uiso  ? O
   H1         1.0    -0.280000     0.864450     1.006450    Uiso  ? H
   C25        1.0    -0.267450     0.814350     1.006500    Uiso  ? C
   O1         1.0    -0.170750     0.905450     1.002600    Uiso  ? O
   H1         1.0    -0.364450     0.780000     1.006450    Uiso  ? H
   C25        1.0    -0.314350     0.767450     1.006500    Uiso  ? C
   O1         1.0    -0.405450     0.670750     1.002600    Uiso  ? O
   Zr1        1.0    -0.500000     0.620400     1.000000    Uiso  ? Zr
   H1         1.0     1.135550     0.720000    -0.006450    Uiso  ? H
   C25        1.0     1.185650     0.732550    -0.006500    Uiso  ? C
   C1         1.0     1.152350     0.847650    -0.004100    Uiso  ? C
   C13        1.0     1.202850     0.797150    -0.006200    Uiso  ? C
   H1         1.0     1.220000     0.635550    -0.006450    Uiso  ? H
   C25        1.0     1.232550     0.685650    -0.006500    Uiso  ? C
   C13        1.0     1.297150     0.702850    -0.006200    Uiso  ? C
   C1         1.0     1.347650     0.652350    -0.004100    Uiso  ? C
   O1         1.0     1.329250     0.594550    -0.002600    Uiso  ? O
   H1         1.0     1.280000     0.864450    -0.006450    Uiso  ? H
   C25        1.0     1.267450     0.814350    -0.006500    Uiso  ? C
   O1         1.0     1.170750     0.905450    -0.002600    Uiso  ? O
   H1         1.0     1.364450     0.780000    -0.006450    Uiso  ? H
   C25        1.0     1.314350     0.767450    -0.006500    Uiso  ? C
   O1         1.0     1.405450     0.670750    -0.002600    Uiso  ? O
   Zr1        1.0     1.500000     0.620400     0.000000    Uiso  ? Zr
   H1         1.0     0.780000     0.506450     1.135550    Uiso  ? H
   C25        1.0     0.767450     0.506500     1.185650    Uiso  ? C
   C1         1.0     0.652350     0.504100     1.152350    Uiso  ? C
   C13        1.0     0.702850     0.506200     1.202850    Uiso  ? C
   H1         1.0     0.864450     0.506450     1.220000    Uiso  ? H
   C25        1.0     0.814350     0.506500     1.232550    Uiso  ? C
   C13        1.0     0.797150     0.506200     1.297150    Uiso  ? C
   C1         1.0     0.847650     0.504100     1.347650    Uiso  ? C
   O1         1.0     0.905450     0.502600     1.329250    Uiso  ? O
   H1         1.0     0.635550     0.506450     1.280000    Uiso  ? H
   C25        1.0     0.685650     0.506500     1.267450    Uiso  ? C
   O1         1.0     0.594550     0.502600     1.170750    Uiso  ? O
   H1         1.0     0.720000     0.506450     1.364450    Uiso  ? H
   C25        1.0     0.732550     0.506500     1.314350    Uiso  ? C
   O1         1.0     0.829250     0.502600     1.405450    Uiso  ? O
   Zr1        1.0     0.879600     0.500000     1.500000    Uiso  ? Zr
   H1         1.0     0.780000     0.493550    -0.135550    Uiso  ? H
   C25        1.0     0.767450     0.493500    -0.185650    Uiso  ? C
   C1         1.0     0.652350     0.495900    -0.152350    Uiso  ? C
   C13        1.0     0.702850     0.493800    -0.202850    Uiso  ? C
   H1         1.0     0.864450     0.493550    -0.220000    Uiso  ? H
   C25        1.0     0.814350     0.493500    -0.232550    Uiso  ? C
   C13        1.0     0.797150     0.493800    -0.297150    Uiso  ? C
   C1         1.0     0.847650     0.495900    -0.347650    Uiso  ? C
   O1         1.0     0.905450     0.497400    -0.329250    Uiso  ? O
   H1         1.0     0.635550     0.493550    -0.280000    Uiso  ? H
   C25        1.0     0.685650     0.493500    -0.267450    Uiso  ? C
   O1         1.0     0.594550     0.497400    -0.170750    Uiso  ? O
   H1         1.0     0.720000     0.493550    -0.364450    Uiso  ? H
   C25        1.0     0.732550     0.493500    -0.314350    Uiso  ? C
   O1         1.0     0.829250     0.497400    -0.405450    Uiso  ? O
   Zr1        1.0     0.879600     0.500000    -0.500000    Uiso  ? Zr
   H1         1.0     0.220000     0.506450    -0.135550    Uiso  ? H
   C25        1.0     0.232550     0.506500    -0.185650    Uiso  ? C
   C1         1.0     0.347650     0.504100    -0.152350    Uiso  ? C
   C13        1.0     0.297150     0.506200    -0.202850    Uiso  ? C
   H1         1.0     0.135550     0.506450    -0.220000    Uiso  ? H
   C25        1.0     0.185650     0.506500    -0.232550    Uiso  ? C
   C13        1.0     0.202850     0.506200    -0.297150    Uiso  ? C
   C1         1.0     0.152350     0.504100    -0.347650    Uiso  ? C
   O1         1.0     0.094550     0.502600    -0.329250    Uiso  ? O
   H1         1.0     0.364450     0.506450    -0.280000    Uiso  ? H
   C25        1.0     0.314350     0.506500    -0.267450    Uiso  ? C
   O1         1.0     0.405450     0.502600    -0.170750    Uiso  ? O
   H1         1.0     0.280000     0.506450    -0.364450    Uiso  ? H
   C25        1.0     0.267450     0.506500    -0.314350    Uiso  ? C
   O1         1.0     0.170750     0.502600    -0.405450    Uiso  ? O
   Zr1        1.0     0.120400     0.500000    -0.500000    Uiso  ? Zr
   H1         1.0     0.220000     0.493550     1.135550    Uiso  ? H
   C25        1.0     0.232550     0.493500     1.185650    Uiso  ? C
   C1         1.0     0.347650     0.495900     1.152350    Uiso  ? C
   C13        1.0     0.297150     0.493800     1.202850    Uiso  ? C
   H1         1.0     0.135550     0.493550     1.220000    Uiso  ? H
   C25        1.0     0.185650     0.493500     1.232550    Uiso  ? C
   C13        1.0     0.202850     0.493800     1.297150    Uiso  ? C
   C1         1.0     0.152350     0.495900     1.347650    Uiso  ? C
   O1         1.0     0.094550     0.497400     1.329250    Uiso  ? O
   H1         1.0     0.364450     0.493550     1.280000    Uiso  ? H
   C25        1.0     0.314350     0.493500     1.267450    Uiso  ? C
   O1         1.0     0.405450     0.497400     1.170750    Uiso  ? O
   H1         1.0     0.280000     0.493550     1.364450    Uiso  ? H
   C25        1.0     0.267450     0.493500     1.314350    Uiso  ? C
   O1         1.0     0.170750     0.497400     1.405450    Uiso  ? O
   Zr1        1.0     0.120400     0.500000     1.500000    Uiso  ? Zr
   H1         1.0     1.135550     1.006450     0.280000    Uiso  ? H
   C25        1.0     1.185650     1.006500     0.267450    Uiso  ? C
   C1         1.0     1.152350     1.004100     0.152350    Uiso  ? C
   C13        1.0     1.202850     1.006200     0.202850    Uiso  ? C
   H1         1.0     1.220000     1.006450     0.364450    Uiso  ? H
   C25        1.0     1.232550     1.006500     0.314350    Uiso  ? C
   C13        1.0     1.297150     1.006200     0.297150    Uiso  ? C
   C1         1.0     1.347650     1.004100     0.347650    Uiso  ? C
   O1         1.0     1.329250     1.002600     0.405450    Uiso  ? O
   H1         1.0     1.280000     1.006450     0.135550    Uiso  ? H
   C25        1.0     1.267450     1.006500     0.185650    Uiso  ? C
   O1         1.0     1.170750     1.002600     0.094550    Uiso  ? O
   H1         1.0     1.364450     1.006450     0.220000    Uiso  ? H
   C25        1.0     1.314350     1.006500     0.232550    Uiso  ? C
   O1         1.0     1.405450     1.002600     0.329250    Uiso  ? O
   Zr1        1.0     1.379600     1.000000     0.500000    Uiso  ? Zr
   Zr1        1.0     1.500000     1.000000     0.379600    Uiso  ? Zr
   H1         1.0    -0.135550    -0.006450     0.280000    Uiso  ? H
   C25        1.0    -0.185650    -0.006500     0.267450    Uiso  ? C
   C1         1.0    -0.152350    -0.004100     0.152350    Uiso  ? C
   C13        1.0    -0.202850    -0.006200     0.202850    Uiso  ? C
   H1         1.0    -0.220000    -0.006450     0.364450    Uiso  ? H
   C25        1.0    -0.232550    -0.006500     0.314350    Uiso  ? C
   C13        1.0    -0.297150    -0.006200     0.297150    Uiso  ? C
   C1         1.0    -0.347650    -0.004100     0.347650    Uiso  ? C
   O1         1.0    -0.329250    -0.002600     0.405450    Uiso  ? O
   H1         1.0    -0.280000    -0.006450     0.135550    Uiso  ? H
   C25        1.0    -0.267450    -0.006500     0.185650    Uiso  ? C
   O1         1.0    -0.170750    -0.002600     0.094550    Uiso  ? O
   H1         1.0    -0.364450    -0.006450     0.220000    Uiso  ? H
   C25        1.0    -0.314350    -0.006500     0.232550    Uiso  ? C
   O1         1.0    -0.405450    -0.002600     0.329250    Uiso  ? O
   Zr1        1.0    -0.379600     0.000000     0.500000    Uiso  ? Zr
   Zr1        1.0    -0.500000     0.000000     0.379600    Uiso  ? Zr
   H1         1.0    -0.135550     1.006450     0.720000    Uiso  ? H
   C25        1.0    -0.185650     1.006500     0.732550    Uiso  ? C
   C1         1.0    -0.152350     1.004100     0.847650    Uiso  ? C
   C13        1.0    -0.202850     1.006200     0.797150    Uiso  ? C
   H1         1.0    -0.220000     1.006450     0.635550    Uiso  ? H
   C25        1.0    -0.232550     1.006500     0.685650    Uiso  ? C
   C13        1.0    -0.297150     1.006200     0.702850    Uiso  ? C
   C1         1.0    -0.347650     1.004100     0.652350    Uiso  ? C
   O1         1.0    -0.329250     1.002600     0.594550    Uiso  ? O
   H1         1.0    -0.280000     1.006450     0.864450    Uiso  ? H
   C25        1.0    -0.267450     1.006500     0.814350    Uiso  ? C
   O1         1.0    -0.170750     1.002600     0.905450    Uiso  ? O
   H1         1.0    -0.364450     1.006450     0.780000    Uiso  ? H
   C25        1.0    -0.314350     1.006500     0.767450    Uiso  ? C
   O1         1.0    -0.405450     1.002600     0.670750    Uiso  ? O
   Zr1        1.0    -0.379600     1.000000     0.500000    Uiso  ? Zr
   Zr1        1.0    -0.500000     1.000000     0.620400    Uiso  ? Zr
   H1         1.0     1.135550    -0.006450     0.720000    Uiso  ? H
   C25        1.0     1.185650    -0.006500     0.732550    Uiso  ? C
   C1         1.0     1.152350    -0.004100     0.847650    Uiso  ? C
   C13        1.0     1.202850    -0.006200     0.797150    Uiso  ? C
   H1         1.0     1.220000    -0.006450     0.635550    Uiso  ? H
   C25        1.0     1.232550    -0.006500     0.685650    Uiso  ? C
   C13        1.0     1.297150    -0.006200     0.702850    Uiso  ? C
   C1         1.0     1.347650    -0.004100     0.652350    Uiso  ? C
   O1         1.0     1.329250    -0.002600     0.594550    Uiso  ? O
   H1         1.0     1.280000    -0.006450     0.864450    Uiso  ? H
   C25        1.0     1.267450    -0.006500     0.814350    Uiso  ? C
   O1         1.0     1.170750    -0.002600     0.905450    Uiso  ? O
   H1         1.0     1.364450    -0.006450     0.780000    Uiso  ? H
   C25        1.0     1.314350    -0.006500     0.767450    Uiso  ? C
   O1         1.0     1.405450    -0.002600     0.670750    Uiso  ? O
   Zr1        1.0     1.379600     0.000000     0.500000    Uiso  ? Zr
   Zr1        1.0     1.500000     0.000000     0.620400    Uiso  ? Zr
   H1         1.0     0.780000     1.135550     0.506450    Uiso  ? H
   C25        1.0     0.767450     1.185650     0.506500    Uiso  ? C
   C1         1.0     0.652350     1.152350     0.504100    Uiso  ? C
   C13        1.0     0.702850     1.202850     0.506200    Uiso  ? C
   H1         1.0     0.864450     1.220000     0.506450    Uiso  ? H
   C25        1.0     0.814350     1.232550     0.506500    Uiso  ? C
   C13        1.0     0.797150     1.297150     0.506200    Uiso  ? C
   C1         1.0     0.847650     1.347650     0.504100    Uiso  ? C
   O1         1.0     0.905450     1.329250     0.502600    Uiso  ? O
   H1         1.0     0.635550     1.280000     0.506450    Uiso  ? H
   C25        1.0     0.685650     1.267450     0.506500    Uiso  ? C
   O1         1.0     0.594550     1.170750     0.502600    Uiso  ? O
   H1         1.0     0.720000     1.364450     0.506450    Uiso  ? H
   C25        1.0     0.732550     1.314350     0.506500    Uiso  ? C
   O1         1.0     0.829250     1.405450     0.502600    Uiso  ? O
   Zr1        1.0     1.000000     1.379600     0.500000    Uiso  ? Zr
   Zr1        1.0     0.879600     1.500000     0.500000    Uiso  ? Zr
   H1         1.0     0.780000    -0.135550     0.493550    Uiso  ? H
   C25        1.0     0.767450    -0.185650     0.493500    Uiso  ? C
   C1         1.0     0.652350    -0.152350     0.495900    Uiso  ? C
   C13        1.0     0.702850    -0.202850     0.493800    Uiso  ? C
   H1         1.0     0.864450    -0.220000     0.493550    Uiso  ? H
   C25        1.0     0.814350    -0.232550     0.493500    Uiso  ? C
   C13        1.0     0.797150    -0.297150     0.493800    Uiso  ? C
   C1         1.0     0.847650    -0.347650     0.495900    Uiso  ? C
   O1         1.0     0.905450    -0.329250     0.497400    Uiso  ? O
   H1         1.0     0.635550    -0.280000     0.493550    Uiso  ? H
   C25        1.0     0.685650    -0.267450     0.493500    Uiso  ? C
   O1         1.0     0.594550    -0.170750     0.497400    Uiso  ? O
   H1         1.0     0.720000    -0.364450     0.493550    Uiso  ? H
   C25        1.0     0.732550    -0.314350     0.493500    Uiso  ? C
   O1         1.0     0.829250    -0.405450     0.497400    Uiso  ? O
   Zr1        1.0     1.000000    -0.379600     0.500000    Uiso  ? Zr
   Zr1        1.0     0.879600    -0.500000     0.500000    Uiso  ? Zr
   H1         1.0     0.220000    -0.135550     0.506450    Uiso  ? H
   C25        1.0     0.232550    -0.185650     0.506500    Uiso  ? C
   C1         1.0     0.347650    -0.152350     0.504100    Uiso  ? C
   C13        1.0     0.297150    -0.202850     0.506200    Uiso  ? C
   H1         1.0     0.135550    -0.220000     0.506450    Uiso  ? H
   C25        1.0     0.185650    -0.232550     0.506500    Uiso  ? C
   C13        1.0     0.202850    -0.297150     0.506200    Uiso  ? C
   C1         1.0     0.152350    -0.347650     0.504100    Uiso  ? C
   O1         1.0     0.094550    -0.329250     0.502600    Uiso  ? O
   H1         1.0     0.364450    -0.280000     0.506450    Uiso  ? H
   C25        1.0     0.314350    -0.267450     0.506500    Uiso  ? C
   O1         1.0     0.405450    -0.170750     0.502600    Uiso  ? O
   H1         1.0     0.280000    -0.364450     0.506450    Uiso  ? H
   C25        1.0     0.267450    -0.314350     0.506500    Uiso  ? C
   O1         1.0     0.170750    -0.405450     0.502600    Uiso  ? O
   Zr1        1.0     0.000000    -0.379600     0.500000    Uiso  ? Zr
   Zr1        1.0     0.120400    -0.500000     0.500000    Uiso  ? Zr
   H1         1.0     0.220000     1.135550     0.493550    Uiso  ? H
   C25        1.0     0.232550     1.185650     0.493500    Uiso  ? C
   C1         1.0     0.347650     1.152350     0.495900    Uiso  ? C
   C13        1.0     0.297150     1.202850     0.493800    Uiso  ? C
   H1         1.0     0.135550     1.220000     0.493550    Uiso  ? H
   C25        1.0     0.185650     1.232550     0.493500    Uiso  ? C
   C13        1.0     0.202850     1.297150     0.493800    Uiso  ? C
   C1         1.0     0.152350     1.347650     0.495900    Uiso  ? C
   O1         1.0     0.094550     1.329250     0.497400    Uiso  ? O
   H1         1.0     0.364450     1.280000     0.493550    Uiso  ? H
   C25        1.0     0.314350     1.267450     0.493500    Uiso  ? C
   O1         1.0     0.405450     1.170750     0.497400    Uiso  ? O
   H1         1.0     0.280000     1.364450     0.493550    Uiso  ? H
   C25        1.0     0.267450     1.314350     0.493500    Uiso  ? C
   O1         1.0     0.170750     1.405450     0.497400    Uiso  ? O
   Zr1        1.0     0.000000     1.379600     0.500000    Uiso  ? Zr
   Zr1        1.0     0.120400     1.500000     0.500000    Uiso  ? Zr
   H1         1.0     1.006450     1.135550     0.280000    Uiso  ? H
   C25        1.0     1.006500     1.185650     0.267450    Uiso  ? C
   C1         1.0     1.004100     1.152350     0.152350    Uiso  ? C
   C13        1.0     1.006200     1.202850     0.202850    Uiso  ? C
   H1         1.0     1.006450     1.220000     0.364450    Uiso  ? H
   C25        1.0     1.006500     1.232550     0.314350    Uiso  ? C
   C13        1.0     1.006200     1.297150     0.297150    Uiso  ? C
   C1         1.0     1.004100     1.347650     0.347650    Uiso  ? C
   O1         1.0     1.002600     1.329250     0.405450    Uiso  ? O
   H1         1.0     1.006450     1.280000     0.135550    Uiso  ? H
   C25        1.0     1.006500     1.267450     0.185650    Uiso  ? C
   O1         1.0     1.002600     1.170750     0.094550    Uiso  ? O
   H1         1.0     1.006450     1.364450     0.220000    Uiso  ? H
   C25        1.0     1.006500     1.314350     0.232550    Uiso  ? C
   O1         1.0     1.002600     1.405450     0.329250    Uiso  ? O
   Zr1        1.0     1.000000     1.500000     0.379600    Uiso  ? Zr
   H1         1.0    -0.006450    -0.135550     0.280000    Uiso  ? H
   C25        1.0    -0.006500    -0.185650     0.267450    Uiso  ? C
   C1         1.0    -0.004100    -0.152350     0.152350    Uiso  ? C
   C13        1.0    -0.006200    -0.202850     0.202850    Uiso  ? C
   H1         1.0    -0.006450    -0.220000     0.364450    Uiso  ? H
   C25        1.0    -0.006500    -0.232550     0.314350    Uiso  ? C
   C13        1.0    -0.006200    -0.297150     0.297150    Uiso  ? C
   C1         1.0    -0.004100    -0.347650     0.347650    Uiso  ? C
   O1         1.0    -0.002600    -0.329250     0.405450    Uiso  ? O
   H1         1.0    -0.006450    -0.280000     0.135550    Uiso  ? H
   C25        1.0    -0.006500    -0.267450     0.185650    Uiso  ? C
   O1         1.0    -0.002600    -0.170750     0.094550    Uiso  ? O
   H1         1.0    -0.006450    -0.364450     0.220000    Uiso  ? H
   C25        1.0    -0.006500    -0.314350     0.232550    Uiso  ? C
   O1         1.0    -0.002600    -0.405450     0.329250    Uiso  ? O
   Zr1        1.0     0.000000    -0.500000     0.379600    Uiso  ? Zr
   H1         1.0     1.006450    -0.135550     0.720000    Uiso  ? H
   C25        1.0     1.006500    -0.185650     0.732550    Uiso  ? C
   C1         1.0     1.004100    -0.152350     0.847650    Uiso  ? C
   C13        1.0     1.006200    -0.202850     0.797150    Uiso  ? C
   H1         1.0     1.006450    -0.220000     0.635550    Uiso  ? H
   C25        1.0     1.006500    -0.232550     0.685650    Uiso  ? C
   C13        1.0     1.006200    -0.297150     0.702850    Uiso  ? C
   C1         1.0     1.004100    -0.347650     0.652350    Uiso  ? C
   O1         1.0     1.002600    -0.329250     0.594550    Uiso  ? O
   H1         1.0     1.006450    -0.280000     0.864450    Uiso  ? H
   C25        1.0     1.006500    -0.267450     0.814350    Uiso  ? C
   O1         1.0     1.002600    -0.170750     0.905450    Uiso  ? O
   H1         1.0     1.006450    -0.364450     0.780000    Uiso  ? H
   C25        1.0     1.006500    -0.314350     0.767450    Uiso  ? C
   O1         1.0     1.002600    -0.405450     0.670750    Uiso  ? O
   Zr1        1.0     1.000000    -0.500000     0.620400    Uiso  ? Zr
   H1         1.0    -0.006450     1.135550     0.720000    Uiso  ? H
   C25        1.0    -0.006500     1.185650     0.732550    Uiso  ? C
   C1         1.0    -0.004100     1.152350     0.847650    Uiso  ? C
   C13        1.0    -0.006200     1.202850     0.797150    Uiso  ? C
   H1         1.0    -0.006450     1.220000     0.635550    Uiso  ? H
   C25        1.0    -0.006500     1.232550     0.685650    Uiso  ? C
   C13        1.0    -0.006200     1.297150     0.702850    Uiso  ? C
   C1         1.0    -0.004100     1.347650     0.652350    Uiso  ? C
   O1         1.0    -0.002600     1.329250     0.594550    Uiso  ? O
   H1         1.0    -0.006450     1.280000     0.864450    Uiso  ? H
   C25        1.0    -0.006500     1.267450     0.814350    Uiso  ? C
   O1         1.0    -0.002600     1.170750     0.905450    Uiso  ? O
   H1         1.0    -0.006450     1.364450     0.780000    Uiso  ? H
   C25        1.0    -0.006500     1.314350     0.767450    Uiso  ? C
   O1         1.0    -0.002600     1.405450     0.670750    Uiso  ? O
   Zr1        1.0     0.000000     1.500000     0.620400    Uiso  ? Zr
   H1         1.0     1.135550     0.780000     0.506450    Uiso  ? H
   C25        1.0     1.185650     0.767450     0.506500    Uiso  ? C
   C1         1.0     1.152350     0.652350     0.504100    Uiso  ? C
   C13        1.0     1.202850     0.702850     0.506200    Uiso  ? C
   H1         1.0     1.220000     0.864450     0.506450    Uiso  ? H
   C25        1.0     1.232550     0.814350     0.506500    Uiso  ? C
   C13        1.0     1.297150     0.797150     0.506200    Uiso  ? C
   C1         1.0     1.347650     0.847650     0.504100    Uiso  ? C
   O1         1.0     1.329250     0.905450     0.502600    Uiso  ? O
   H1         1.0     1.280000     0.635550     0.506450    Uiso  ? H
   C25        1.0     1.267450     0.685650     0.506500    Uiso  ? C
   O1         1.0     1.170750     0.594550     0.502600    Uiso  ? O
   H1         1.0     1.364450     0.720000     0.506450    Uiso  ? H
   C25        1.0     1.314350     0.732550     0.506500    Uiso  ? C
   O1         1.0     1.405450     0.829250     0.502600    Uiso  ? O
   Zr1        1.0     1.500000     0.879600     0.500000    Uiso  ? Zr
   H1         1.0    -0.135550     0.780000     0.493550    Uiso  ? H
   C25        1.0    -0.185650     0.767450     0.493500    Uiso  ? C
   C1         1.0    -0.152350     0.652350     0.495900    Uiso  ? C
   C13        1.0    -0.202850     0.702850     0.493800    Uiso  ? C
   H1         1.0    -0.220000     0.864450     0.493550    Uiso  ? H
   C25        1.0    -0.232550     0.814350     0.493500    Uiso  ? C
   C13        1.0    -0.297150     0.797150     0.493800    Uiso  ? C
   C1         1.0    -0.347650     0.847650     0.495900    Uiso  ? C
   O1         1.0    -0.329250     0.905450     0.497400    Uiso  ? O
   H1         1.0    -0.280000     0.635550     0.493550    Uiso  ? H
   C25        1.0    -0.267450     0.685650     0.493500    Uiso  ? C
   O1         1.0    -0.170750     0.594550     0.497400    Uiso  ? O
   H1         1.0    -0.364450     0.720000     0.493550    Uiso  ? H
   C25        1.0    -0.314350     0.732550     0.493500    Uiso  ? C
   O1         1.0    -0.405450     0.829250     0.497400    Uiso  ? O
   Zr1        1.0    -0.500000     0.879600     0.500000    Uiso  ? Zr
   H1         1.0    -0.135550     0.220000     0.506450    Uiso  ? H
   C25        1.0    -0.185650     0.232550     0.506500    Uiso  ? C
   C1         1.0    -0.152350     0.347650     0.504100    Uiso  ? C
   C13        1.0    -0.202850     0.297150     0.506200    Uiso  ? C
   H1         1.0    -0.220000     0.135550     0.506450    Uiso  ? H
   C25        1.0    -0.232550     0.185650     0.506500    Uiso  ? C
   C13        1.0    -0.297150     0.202850     0.506200    Uiso  ? C
   C1         1.0    -0.347650     0.152350     0.504100    Uiso  ? C
   O1         1.0    -0.329250     0.094550     0.502600    Uiso  ? O
   H1         1.0    -0.280000     0.364450     0.506450    Uiso  ? H
   C25        1.0    -0.267450     0.314350     0.506500    Uiso  ? C
   O1         1.0    -0.170750     0.405450     0.502600    Uiso  ? O
   H1         1.0    -0.364450     0.280000     0.506450    Uiso  ? H
   C25        1.0    -0.314350     0.267450     0.506500    Uiso  ? C
   O1         1.0    -0.405450     0.170750     0.502600    Uiso  ? O
   Zr1        1.0    -0.500000     0.120400     0.500000    Uiso  ? Zr
   H1         1.0     1.135550     0.220000     0.493550    Uiso  ? H
   C25        1.0     1.185650     0.232550     0.493500    Uiso  ? C
   C1         1.0     1.152350     0.347650     0.495900    Uiso  ? C
   C13        1.0     1.202850     0.297150     0.493800    Uiso  ? C
   H1         1.0     1.220000     0.135550     0.493550    Uiso  ? H
   C25        1.0     1.232550     0.185650     0.493500    Uiso  ? C
   C13        1.0     1.297150     0.202850     0.493800    Uiso  ? C
   C1         1.0     1.347650     0.152350     0.495900    Uiso  ? C
   O1         1.0     1.329250     0.094550     0.497400    Uiso  ? O
   H1         1.0     1.280000     0.364450     0.493550    Uiso  ? H
   C25        1.0     1.267450     0.314350     0.493500    Uiso  ? C
   O1         1.0     1.170750     0.405450     0.497400    Uiso  ? O
   H1         1.0     1.364450     0.280000     0.493550    Uiso  ? H
   C25        1.0     1.314350     0.267450     0.493500    Uiso  ? C
   O1         1.0     1.405450     0.170750     0.497400    Uiso  ? O
   Zr1        1.0     1.500000     0.120400     0.500000    Uiso  ? Zr
